 Head values for selected MODFLOW cells
   1885.3489   1944.6396
   1889.9957   1944.6294
   1893.0928   1944.6201
   1895.1376   1944.6119
   1896.4760   1944.6047
   1897.3409   1944.5985
   1897.8884   1944.5931
   1898.2214   1944.5889
   1898.4089   1944.5854
   1898.4967   1944.5830
   1898.5157   1944.5815
   1898.4872   1944.5811
   1898.4258   1944.5814
   1898.3414   1944.5829
   1898.2413   1944.5853
   1898.1309   1944.5889
   1898.0134   1944.5933
   1897.8920   1944.5988
   1897.7683   1944.6052
   1897.6439   1944.6128
   1897.5198   1944.6213
   1897.3967   1944.6309
   1897.2756   1944.6415
   1897.1567   1944.6531
   1897.0404   1944.6658
   1896.9270   1944.6794
   1896.8168   1944.6942
   1896.7097   1944.7100
   1896.6062   1944.7268
   1896.5060   1944.7445
   1896.4093   1944.7634
   1896.3165   1944.7832
   1896.2274   1944.8040
   1896.1421   1944.8258
   1896.0604   1944.8485
   1895.9824   1944.8723
   1895.9080   1944.8970
   1895.8369   1944.9226
   1895.7692   1944.9491
   1895.7046   1944.9767
   1895.6432   1945.0050
   1895.5853   1945.0343
   1895.5321   1945.0645
   1895.4840   1945.0955
   1895.4408   1945.1273
   1895.3947   1945.1599
   1895.3478   1945.1935
   1895.3015   1945.2278
   1895.2574   1945.2628
   1895.2186   1945.2987
   1895.1843   1945.3353
   1895.1543   1945.3727
   1895.1281   1945.4108
   1895.1052   1945.4496
   1895.0857   1945.4890
   1895.0691   1945.5292
   1895.0552   1945.5699
   1895.0439   1945.6115
   1895.0352   1945.6534
   1895.0286   1945.6962
   1895.0243   1945.7394
   1895.0220   1945.7833
   1895.0217   1945.8278
   1895.0233   1945.8727
   1895.0265   1945.9182
   1895.0312   1945.9642
   1895.0374   1946.0107
   1895.0448   1946.0579
   1895.0536   1946.1053
   1895.0636   1946.1533
   1895.0752   1946.2017
   1895.0884   1946.2505
   1895.1031   1946.2997
   1895.1195   1946.3494
   1895.1372   1946.3994
   1895.1561   1946.4498
   1895.1761   1946.5006
   1895.1974   1946.5518
   1895.2195   1946.6031
   1895.2426   1946.6550
   1895.2665   1946.7072
   1895.2911   1946.7595
   1895.3167   1946.8121
   1895.3429   1946.8651
   1895.3700   1946.9183
   1895.3977   1946.9718
   1895.4261   1947.0255
   1895.4552   1947.0795
   1895.4849   1947.1337
   1895.5151   1947.1880
   1895.5461   1947.2426
   1895.5800   1947.2972
   1895.6158   1947.3522
   1895.6531   1947.4072
   1895.6912   1947.4625
   1895.7301   1947.5179
   1895.7695   1947.5734
   1895.8094   1947.6290
   1895.8497   1947.6848
   1895.8905   1947.7406
   1895.9315   1947.7966
   1895.9722   1947.8527
   1896.0143   1947.9088
   1896.0562   1947.9650
   1896.0972   1948.0212
   1896.1381   1948.0775
   1896.1790   1948.1339
   1896.2195   1948.1903
   1896.2594   1948.2467
   1896.2988   1948.3032
   1896.3378   1948.3597
   1896.3763   1948.4163
   1896.4149   1948.4728
   1896.4536   1948.5293
   1896.4927   1948.5858
   1896.5331   1948.6423
   1896.5754   1948.6987
   1896.6194   1948.7552
   1896.6648   1948.8116
   1896.7114   1948.8680
   1896.7589   1948.9244
   1896.8071   1948.9807
   1896.8541   1949.0369
   1896.8994   1949.0931
   1896.9429   1949.1492
   1896.9845   1949.2052
   1897.0245   1949.2612
   1897.0632   1949.3171
   1897.1016   1949.3729
   1897.1404   1949.4287
   1897.1801   1949.4843
   1897.2208   1949.5398
   1897.2634   1949.5952
   1897.3058   1949.6506
   1897.3473   1949.7058
   1897.3876   1949.7610
   1897.4268   1949.8159
   1897.4651   1949.8708
   1897.5024   1949.9257
   1897.5402   1949.9802
   1897.5787   1950.0348
   1897.6167   1950.0891
   1897.6544   1950.1434
   1897.6914   1950.1975
   1897.7291   1950.2515
   1897.7683   1950.3053
   1897.8090   1950.3590
   1897.8508   1950.4125
   1897.8922   1950.4659
   1897.9327   1950.5192
   1897.9724   1950.5723
   1898.0112   1950.6251
   1898.0493   1950.6780
   1898.0869   1950.7306
   1898.1260   1950.7830
   1898.1656   1950.8352
   1898.2061   1950.8873
   1898.2457   1950.9393
   1898.2841   1950.9911
   1898.3209   1951.0426
   1898.3566   1951.0941
   1898.3911   1951.1453
   1898.4247   1951.1964
   1898.4574   1951.2473
   1898.4895   1951.2980
   1898.5211   1951.3485
   1898.5522   1951.3988
   1898.5825   1951.4490
   1898.6119   1951.4989
   1898.6406   1951.5487
   1898.6686   1951.5984
   1898.6958   1951.6478
   1898.7227   1951.6970
   1898.7512   1951.7461
   1898.7823   1951.7949
   1898.8158   1951.8435
   1898.8510   1951.8920
   1898.8876   1951.9402
   1898.9250   1951.9883
   1898.9633   1952.0361
   1899.0020   1952.0839
   1899.0410   1952.1313
   1899.0801   1952.1787
   1899.1193   1952.2257
   1899.1584   1952.2727
   1899.1975   1952.3193
   1899.2355   1952.3658
   1899.2723   1952.4122
   1899.3114   1952.4583
   1899.3539   1952.5042
   1899.3997   1952.5499
   1899.4457   1952.5955
   1899.4918   1952.6407
   1899.5376   1952.6859
   1899.5831   1952.7308
   1899.6265   1952.7755
   1899.6672   1952.8201
   1899.7056   1952.8644
   1899.7417   1952.9084
   1899.7775   1952.9524
   1899.8136   1952.9961
   1899.8518   1953.0397
   1899.8921   1953.0830
   1899.9344   1953.1261
   1899.9784   1953.1689
   1900.0237   1953.2117
   1900.0713   1953.2543
   1900.1178   1953.2965
   1900.1669   1953.3387
   1900.2146   1953.3806
   1900.2596   1953.4224
   1900.3018   1953.4639
   1900.3414   1953.5052
   1900.3822   1953.5464
   1900.4214   1953.5873
   1900.4580   1953.6281
   1900.4922   1953.6686
   1900.5240   1953.7090
   1900.5540   1953.7491
   1900.5824   1953.7891
   1900.6108   1953.8289
   1900.6403   1953.8685
   1900.6704   1953.9078
   1900.7015   1953.9470
   1900.7327   1953.9861
   1900.7637   1954.0249
   1900.7944   1954.0634
   1900.8243   1954.1013
   1900.8541   1954.1387
   1900.8839   1954.1754
   1900.9143   1954.2117
   1900.9458   1954.2474
   1900.9783   1954.2827
   1901.0115   1954.3175
   1901.0450   1954.3517
   1901.0787   1954.3855
   1901.1095   1954.4189
   1901.1368   1954.4518
   1901.1609   1954.4844
   1901.1824   1954.5164
   1901.2018   1954.5481
   1901.2192   1954.5793
   1901.2350   1954.6102
   1901.2493   1954.6406
   1901.2626   1954.6708
   1901.2759   1954.7006
   1901.2898   1954.7299
   1901.3043   1954.7589
   1901.3210   1954.7876
   1901.3405   1954.8159
   1901.3621   1954.8440
   1901.3857   1954.8717
   1901.4119   1954.8990
   1901.4391   1954.9261
   1901.4677   1954.9529
   1901.4973   1954.9794
   1901.5260   1955.0056
   1901.5551   1955.0315
   1901.5829   1955.0571
   1901.6090   1955.0825
   1901.6332   1955.1075
   1901.6559   1955.1324
   1901.6772   1955.1570
   1901.6975   1955.1813
   1901.7194   1955.2053
   1901.7434   1955.2291
   1901.7695   1955.2527
   1901.7977   1955.2761
   1901.8273   1955.2992
   1901.8568   1955.3220
   1901.8842   1955.3446
   1901.9091   1955.3671
   1901.9314   1955.3893
   1901.9515   1955.4111
   1901.9701   1955.4329
   1901.9875   1955.4545
   1902.0037   1955.4757
   1902.0184   1955.4968
   1902.0322   1955.5176
   1902.0457   1955.5382
   1902.0590   1955.5587
   1902.0723   1955.5789
   1902.0856   1955.5989
   1902.0989   1955.6185
   1902.1118   1955.6381
   1902.1237   1955.6573
   1902.1351   1955.6764
   1902.1467   1955.6951
   1902.1583   1955.7136
   1902.1700   1955.7319
   1902.1820   1955.7500
   1902.1940   1955.7678
   1902.2062   1955.7854
   1902.2184   1955.8027
   1902.2307   1955.8199
   1902.2430   1955.8369
   1902.2546   1955.8535
   1902.2675   1955.8701
   1902.2805   1955.8864
   1902.2938   1955.9023
   1902.3070   1955.9182
   1902.3202   1955.9338
   1902.3333   1955.9493
   1902.3463   1955.9646
   1902.3593   1955.9796
   1902.3718   1955.9945
   1902.3838   1956.0092
   1902.3949   1956.0236
   1902.4050   1956.0378
   1902.4152   1956.0519
   1902.4259   1956.0658
   1902.4359   1956.0796
   1902.4469   1956.0931
   1902.4580   1956.1064
   1902.4691   1956.1196
   1902.4801   1956.1327
   1902.4910   1956.1455
   1902.5017   1956.1582
   1902.5125   1956.1707
   1902.5229   1956.1830
   1902.5334   1956.1952
   1902.5438   1956.2072
   1902.5543   1956.2190
   1902.5646   1956.2307
   1902.5750   1956.2423
   1902.5853   1956.2537
   1902.5956   1956.2649
   1902.6058   1956.2760
   1902.6162   1956.2870
   1902.6265   1956.2977
   1902.6367   1956.3083
   1902.6470   1956.3190
   1902.6572   1956.3293
   1902.6675   1956.3395
   1902.6777   1956.3496
   1902.6879   1956.3596
   1902.6981   1956.3694
   1902.7083   1956.3792
   1902.7185   1956.3887
   1902.7286   1956.3981
   1902.7389   1956.4075
   1902.7490   1956.4166
   1902.7592   1956.4257
   1902.7693   1956.4346
   1902.7794   1956.4434
   1902.7894   1956.4521
   1902.7996   1956.4607
   1902.8096   1956.4691
   1902.8197   1956.4774
   1902.8297   1956.4857
   1902.8397   1956.4938
   1902.8497   1956.5018
   1902.8597   1956.5096
   1902.8696   1956.5175
   1902.8796   1956.5251
   1902.8890   1956.5327
   1902.8979   1956.5402
   1902.9062   1956.5475
   1902.9141   1956.5547
   1902.9215   1956.5619
   1902.9287   1956.5690
   1902.9357   1956.5758
   1902.9425   1956.5826
   1902.9491   1956.5895
   1902.9557   1956.5961
   1902.9622   1956.6027
   1902.9686   1956.6091
   1902.9750   1956.6155
   1902.9814   1956.6217
   1902.9878   1956.6278
   1902.9941   1956.6339
   1903.0005   1956.6399
   1903.0068   1956.6458
   1903.0131   1956.6516
   1903.0194   1956.6573
   1903.0258   1956.6630
   1903.0321   1956.6685
   1903.0385   1956.6740
   1903.0448   1956.6793
   1903.0511   1956.6846
   1903.0575   1956.6898
   1903.0638   1956.6949
   1903.0703   1956.7000
   1903.0767   1956.7050
   1903.0830   1956.7098
   1903.0894   1956.7146
   1903.0958   1956.7194
   1903.1022   1956.7240
   1903.1086   1956.7285
   1903.1150   1956.7330
   1903.1215   1956.7374
   1903.1278   1956.7418
   1903.1343   1956.7461
   1903.1406   1956.7502
   1903.1471   1956.7544
   1903.1534   1956.7584
   1903.1599   1956.7623
   1903.1663   1956.7662
   1903.1727   1956.7701
   1903.1791   1956.7738
   1903.1855   1956.7776
   1903.1919   1956.7811
   1903.1982   1956.7847
   1903.2047   1956.7882
   1903.2111   1956.7916
   1903.2174   1956.7949
   1903.2238   1956.7982
   1903.2302   1956.8015
   1903.2366   1956.8046
   1903.2429   1956.8077
   1903.2493   1956.8108
   1903.2556   1956.8137
   1903.2620   1956.8167
   1903.2682   1956.8195
   1903.2745   1956.8223
   1903.2809   1956.8250
   1903.2871   1956.8276
   1903.2935   1956.8302
   1903.2997   1956.8328
   1903.3059   1956.8352
   1903.3121   1956.8376
   1903.3185   1956.8400
   1903.3285   1956.8423
   1903.3444   1956.8446
   1903.3625   1956.8778
   1903.3821   1956.9255
   1903.4164   1956.9401
   1903.4989   1956.9463
   1903.5371   1956.9523
   1903.5626   1956.9573
   1903.5889   1956.9623
   1903.6107   1956.9666
   1903.6298   1956.9707
   1903.6453   1956.9745
   1903.6587   1956.9780
   1903.6699   1956.9813
   1903.6798   1956.9845
   1903.6885   1956.9875
   1903.6960   1956.9904
   1903.7029   1956.9930
   1903.7090   1956.9956
   1903.7146   1956.9980
   1903.7197   1957.0004
   1903.7245   1957.0026
   1903.7290   1957.0046
   1903.7333   1957.0066
   1903.7373   1957.0085
   1903.7411   1957.0103
   1903.7462   1957.0120
   1903.7523   1957.0135
   1903.7593   1957.0151
   1903.7667   1957.0166
   1903.7745   1957.0179
   1903.7826   1957.0193
   1903.7908   1957.0205
   1903.7990   1957.0217
   1903.8071   1957.0228
   1903.8163   1957.0238
   1903.8263   1957.0248
   1903.8369   1957.0256
   1903.8479   1957.0265
   1903.8593   1957.0272
   1903.8690   1957.0280
   1903.8772   1957.0286
   1903.8839   1957.0292
   1903.8896   1957.0297
   1903.8942   1957.0302
   1903.8992   1957.0305
   1903.9034   1957.0309
   1903.9082   1957.0312
   1903.9137   1957.0315
   1903.9197   1957.0317
   1903.9261   1957.0319
   1903.9330   1957.0320
   1903.9399   1957.0320
   1903.9465   1957.0320
   1903.9525   1957.0320
   1903.9583   1957.0319
   1903.9635   1957.0317
   1903.9685   1957.0315
   1903.9730   1957.0312
   1903.9768   1957.0310
   1903.9797   1957.0308
   1903.9817   1957.0304
   1903.9832   1957.0299
   1903.9844   1957.0295
   1903.9854   1957.0291
   1903.9862   1957.0286
   1903.9871   1957.0280
   1903.9877   1957.0273
   1903.9882   1957.0267
   1903.9885   1957.0260
   1903.9889   1957.0253
   1903.9894   1957.0245
   1903.9905   1957.0238
   1903.9935   1957.0229
   1903.9974   1957.0221
   1904.0016   1957.0212
   1904.0060   1957.0203
   1904.0105   1957.0193
   1904.0153   1957.0183
   1904.0201   1957.0173
   1904.0250   1957.0162
   1904.0299   1957.0151
   1904.0345   1957.0140
   1904.0386   1957.0128
   1904.0414   1957.0117
   1904.0438   1957.0105
   1904.0455   1957.0092
   1904.0480   1957.0079
   1904.0504   1957.0066
   1904.0530   1957.0052
   1904.0555   1957.0039
   1904.0577   1957.0024
   1904.0596   1957.0011
   1904.0610   1956.9996
   1904.0623   1956.9982
   1904.0632   1956.9966
   1904.0640   1956.9951
   1904.0646   1956.9935
   1904.0652   1956.9919
   1904.0656   1956.9904
   1904.0659   1956.9886
   1904.0663   1956.9869
   1904.0669   1956.9854
   1904.0680   1956.9836
   1904.0691   1956.9818
   1904.0703   1956.9801
   1904.0714   1956.9783
   1904.0724   1956.9764
   1904.0734   1956.9746
   1904.0743   1956.9728
   1904.0754   1956.9708
   1904.0767   1956.9690
   1904.0779   1956.9670
   1904.0793   1956.9651
   1904.0808   1956.9630
   1904.0823   1956.9611
   1904.0837   1956.9590
   1904.0853   1956.9569
   1904.0868   1956.9548
   1904.0884   1956.9528
   1904.0898   1956.9507
   1904.0914   1956.9485
   1904.0929   1956.9464
   1904.0944   1956.9442
   1904.0958   1956.9420
   1904.0973   1956.9397
   1904.0988   1956.9375
   1904.1002   1956.9352
   1904.1016   1956.9330
   1904.1029   1956.9307
   1904.1052   1956.9283
   1904.1104   1956.9259
   1904.1168   1956.9236
   1904.1218   1956.9211
   1904.1265   1956.9188
   1904.1312   1956.9164
   1904.1360   1956.9139
   1904.1407   1956.9114
   1904.1447   1956.9089
   1904.1476   1956.9064
   1904.1499   1956.9039
   1904.1517   1956.9014
   1904.1543   1956.8987
   1904.1571   1956.8961
   1904.1619   1956.8934
   1904.1672   1956.8907
   1904.1730   1956.8881
   1904.1788   1956.8853
   1904.1848   1956.8824
   1904.1908   1956.8796
   1904.1956   1956.8768
   1904.2037   1956.8740
   1904.2104   1956.8711
   1904.2157   1956.8682
   1904.2203   1956.8652
   1904.2261   1956.8623
   1904.2334   1956.8594
   1904.2399   1956.8563
   1904.2449   1956.8533
   1904.2484   1956.8502
   1904.2510   1956.8472
   1904.2527   1956.8440
   1904.2537   1956.8409
   1904.2542   1956.8378
   1904.2551   1956.8346
   1904.2561   1956.8314
   1904.2568   1956.8281
   1904.2574   1956.8250
   1904.2581   1956.8217
   1904.2585   1956.8184
   1904.2592   1956.8151
   1904.2596   1956.8118
   1904.2603   1956.8083
   1904.2620   1956.8051
   1904.2643   1956.8016
   1904.2668   1956.7982
   1904.2697   1956.7948
   1904.2727   1956.7914
   1904.2759   1956.7878
   1904.2783   1956.7844
   1904.2798   1956.7809
   1904.2805   1956.7773
   1904.2808   1956.7738
   1904.2806   1956.7703
   1904.2800   1956.7666
   1904.2792   1956.7631
   1904.2777   1956.7594
   1904.2761   1956.7559
   1904.2751   1956.7522
   1904.2738   1956.7485
   1904.2725   1956.7448
   1904.2732   1956.7411
   1904.2748   1956.7374
   1904.2771   1956.7336
   1904.2823   1956.7299
   1904.2871   1956.7262
   1904.2926   1956.7224
   1904.2992   1956.7185
   1904.3057   1956.7147
   1904.3102   1956.7109
   1904.3179   1956.7070
   1904.3256   1956.7032
   1904.3328   1956.6993
   1904.3380   1956.6954
   1904.3414   1956.6915
   1904.3435   1956.6876
   1904.3445   1956.6837
   1904.3445   1956.6798
   1904.3439   1956.6758
   1904.3440   1956.6719
   1904.3441   1956.6678
   1904.3439   1956.6638
   1904.3441   1956.6598
   1904.3442   1956.6558
   1904.3442   1956.6517
   1904.3440   1956.6477
   1904.3438   1956.6437
   1904.3435   1956.6395
   1904.3433   1956.6355
   1904.3425   1956.6313
   1904.3412   1956.6273
   1904.3403   1956.6232
   1904.3436   1956.6190
   1904.3468   1956.6149
   1904.3495   1956.6107
   1904.3512   1956.6066
   1904.3522   1956.6023
   1904.3540   1956.5981
   1904.3555   1956.5940
   1904.3560   1956.5897
   1904.3566   1956.5854
   1904.3578   1956.5813
   1904.3588   1956.5770
   1904.3586   1956.5728
   1904.3577   1956.5685
   1904.3561   1956.5642
   1904.3539   1956.5599
   1904.3513   1956.5557
   1904.3485   1956.5513
   1904.3456   1956.5470
   1904.3425   1956.5426
   1904.3394   1956.5383
   1904.3362   1956.5339
   1904.3339   1956.5295
   1904.3330   1956.5253
   1904.3328   1956.5209
   1904.3323   1956.5165
   1904.3315   1956.5121
   1904.3306   1956.5077
   1904.3290   1956.5033
   1904.3270   1956.4988
   1904.3247   1956.4944
   1904.3223   1956.4900
   1904.3196   1956.4855
   1904.3168   1956.4811
   1904.3146   1956.4766
   1904.3125   1956.4722
   1904.3107   1956.4677
   1904.3090   1956.4631
   1904.3074   1956.4586
   1904.3058   1956.4541
   1904.3043   1956.4496
   1904.3029   1956.4451
   1904.3015   1956.4406
   1904.3002   1956.4360
   1904.2990   1956.4315
   1904.2982   1956.4270
   1904.2980   1956.4224
   1904.2972   1956.4178
   1904.2960   1956.4132
   1904.2943   1956.4087
   1904.2924   1956.4041
   1904.2900   1956.3995
   1904.2876   1956.3949
   1904.2850   1956.3903
   1904.2822   1956.3856
   1904.2795   1956.3810
   1904.2766   1956.3765
   1904.2738   1956.3718
   1904.2709   1956.3672
   1904.2681   1956.3624
   1904.2651   1956.3578
   1904.2622   1956.3531
   1904.2594   1956.3485
   1904.2566   1956.3439
   1904.2538   1956.3391
   1904.2510   1956.3345
   1904.2482   1956.3297
   1904.2455   1956.3251
   1904.2428   1956.3203
   1904.2401   1956.3157
   1904.2374   1956.3109
   1904.2349   1956.3062
   1904.2323   1956.3015
   1904.2297   1956.2968
   1904.2272   1956.2920
   1904.2247   1956.2872
   1904.2222   1956.2825
   1904.2197   1956.2777
   1904.2173   1956.2729
   1904.2150   1956.2682
   1904.2125   1956.2634
   1904.2102   1956.2587
   1904.2079   1956.2539
   1904.2056   1956.2491
   1904.2032   1956.2443
   1904.2009   1956.2395
   1904.1987   1956.2347
   1904.1965   1956.2299
   1904.1943   1956.2251
   1904.1921   1956.2202
   1904.1899   1956.2155
   1904.1879   1956.2106
   1904.1857   1956.2058
   1904.1836   1956.2009
   1904.1815   1956.1960
   1904.1794   1956.1912
   1904.1774   1956.1864
   1904.1754   1956.1815
   1904.1733   1956.1766
   1904.1714   1956.1718
   1904.1694   1956.1669
   1904.1674   1956.1620
   1904.1654   1956.1571
   1904.1635   1956.1522
   1904.1616   1956.1473
   1904.1597   1956.1425
   1904.1577   1956.1376
   1904.1559   1956.1327
   1904.1539   1956.1277
   1904.1521   1956.1228
   1904.1503   1956.1179
   1904.1484   1956.1130
   1904.1466   1956.1080
   1904.1448   1956.1031
   1904.1429   1956.0981
   1904.1411   1956.0933
   1904.1394   1956.0883
   1904.1376   1956.0834
   1904.1359   1956.0784
   1904.1340   1956.0735
   1904.1323   1956.0685
   1904.1306   1956.0635
   1904.1289   1956.0586
   1904.1311   1956.0536
   1904.1505   1956.0724
   1904.2202   1956.0789
   1904.2450   1956.0807
   1904.2611   1956.0802
   1904.2736   1956.0792
   1904.2816   1956.0778
   1904.2876   1956.0764
   1904.2913   1956.0745
   1904.2936   1956.0725
   1904.2947   1956.0703
   1904.2949   1956.0676
   1904.2946   1956.0648
   1904.2936   1956.0618
   1904.2921   1956.0587
   1904.2904   1956.0555
   1904.2885   1956.0522
   1904.2863   1956.0488
   1904.2838   1956.0453
   1904.2812   1956.0417
   1904.2786   1956.0381
   1904.2758   1956.0344
   1904.2729   1956.0308
   1904.2700   1956.0270
   1904.2670   1956.0232
   1904.2639   1956.0193
   1904.2609   1956.0154
   1904.2578   1956.0115
   1904.2546   1956.0074
   1904.2515   1956.0033
   1904.2483   1955.9991
   1904.2451   1955.9950
   1904.2419   1955.9907
   1904.2388   1955.9865
   1904.2358   1955.9822
   1904.2330   1955.9781
   1904.2302   1955.9741
   1904.2275   1955.9701
   1904.2250   1955.9661
   1904.2231   1955.9620
   1904.2211   1955.9579
   1904.2190   1955.9537
   1904.2169   1955.9496
   1904.2146   1955.9454
   1904.2124   1955.9413
   1904.2101   1955.9370
   1904.2078   1955.9327
   1904.2056   1955.9285
   1904.2031   1955.9242
   1904.2014   1955.9198
   1904.2001   1955.9155
   1904.1990   1955.9111
   1904.1980   1955.9067
   1904.1971   1955.9023
   1904.1962   1955.8979
   1904.1958   1955.8934
   1904.1957   1955.8890
   1904.1953   1955.8845
   1904.1946   1955.8800
   1904.1938   1955.8755
   1904.1929   1955.8710
   1904.1917   1955.8663
   1904.1903   1955.8618
   1904.1887   1955.8572
   1904.1871   1955.8525
   1904.1854   1955.8479
   1904.1836   1955.8433
   1904.1818   1955.8386
   1904.1815   1955.8340
   1904.1819   1955.8292
   1904.1825   1955.8246
   1904.1830   1955.8198
   1904.1830   1955.8151
   1904.1827   1955.8103
   1904.1823   1955.8055
   1904.1815   1955.8008
   1904.1807   1955.7960
   1904.1798   1955.7913
   1904.1785   1955.7865
   1904.1771   1955.7816
   1904.1753   1955.7769
   1904.1733   1955.7720
   1904.1710   1955.7671
   1904.1687   1955.7623
   1904.1664   1955.7574
   1904.1639   1955.7526
   1904.1615   1955.7477
   1904.1592   1955.7428
   1904.1567   1955.7379
   1904.1543   1955.7329
   1904.1520   1955.7280
   1904.1501   1955.7231
   1904.1486   1955.7181
   1904.1479   1955.7133
   1904.1493   1955.7084
   1904.1501   1955.7034
   1904.1504   1955.6984
   1904.1501   1955.6935
   1904.1493   1955.6885
   1904.1481   1955.6835
   1904.1465   1955.6786
   1904.1448   1955.6736
   1904.1428   1955.6686
   1904.1416   1955.6636
   1904.1407   1955.6586
   1904.1401   1955.6536
   1904.1396   1955.6486
   1904.1394   1955.6436
   1904.1394   1955.6385
   1904.1392   1955.6335
   1904.1389   1955.6285
   1904.1385   1955.6234
   1904.1379   1955.6184
   1904.1371   1955.6134
   1904.1360   1955.6084
   1904.1346   1955.6033
   1904.1333   1955.5983
   1904.1317   1955.5933
   1904.1300   1955.5881
   1904.1283   1955.5831
   1904.1266   1955.5781
   1904.1249   1955.5730
   1904.1230   1955.5680
   1904.1210   1955.5629
   1904.1187   1955.5579
   1904.1163   1955.5529
   1904.1143   1955.5477
   1904.1122   1955.5427
   1904.1100   1955.5376
   1904.1079   1955.5326
   1904.1057   1955.5275
   1904.1035   1955.5225
   1904.1013   1955.5173
   1904.0990   1955.5123
   1904.0968   1955.5072
   1904.0946   1955.5021
   1904.0924   1955.4971
   1904.0902   1955.4919
   1904.0881   1955.4869
   1904.0859   1955.4818
   1904.0839   1955.4767
   1904.0818   1955.4717
   1904.0797   1955.4666
   1904.0776   1955.4615
   1904.0756   1955.4564
   1904.0735   1955.4513
   1904.0714   1955.4463
   1904.0695   1955.4412
   1904.0674   1955.4362
   1904.0654   1955.4310
   1904.0635   1955.4259
   1904.0616   1955.4209
   1904.0641   1955.4158
   1904.0662   1955.4106
   1904.0675   1955.4056
   1904.0691   1955.4005
   1904.0717   1955.3955
   1904.0735   1955.3904
   1904.0747   1955.3853
   1904.0753   1955.3802
   1904.0753   1955.3751
   1904.0750   1955.3701
   1904.0742   1955.3650
   1904.0743   1955.3599
   1904.0751   1955.3549
   1904.0781   1955.3497
   1904.0806   1955.3447
   1904.0820   1955.3396
   1904.0831   1955.3345
   1904.0850   1955.3295
   1904.0870   1955.3243
   1904.0885   1955.3193
   1904.0944   1955.3142
   1904.0995   1955.3092
   1904.1036   1955.3041
   1904.1067   1955.2991
   1904.1086   1955.2939
   1904.1124   1955.2888
   1904.1152   1955.2838
   1904.1172   1955.2787
   1904.1187   1955.2737
   1904.1198   1955.2686
   1904.1206   1955.2635
   1904.1208   1955.2585
   1904.1207   1955.2534
   1904.1201   1955.2484
   1904.1193   1955.2433
   1904.1185   1955.2383
   1904.1173   1955.2332
   1904.1167   1955.2281
   1904.1162   1955.2231
   1904.1171   1955.2180
   1904.1184   1955.2130
   1904.1196   1955.2080
   1904.1218   1955.2029
   1904.1244   1955.1979
   1904.1270   1955.1929
   1904.1296   1955.1877
   1904.1322   1955.1827
   1904.1344   1955.1777
   1904.1356   1955.1727
   1904.1367   1955.1676
   1904.1373   1955.1626
   1904.1373   1955.1576
   1904.1370   1955.1526
   1904.1361   1955.1476
   1904.1350   1955.1426
   1904.1334   1955.1376
   1904.1318   1955.1324
   1904.1305   1955.1274
   1904.1292   1955.1224
   1904.1284   1955.1174
   1904.1299   1955.1124
   1904.1322   1955.1074
   1904.1349   1955.1024
   1904.1395   1955.0974
   1904.1434   1955.0924
   1904.1476   1955.0874
   1904.1531   1955.0825
   1904.1572   1955.0775
   1904.1600   1955.0725
   1904.1638   1955.0675
   1904.1669   1955.0625
   1904.1681   1955.0575
   1904.1678   1955.0526
   1904.1664   1955.0476
   1904.1641   1955.0426
   1904.1610   1955.0377
   1904.1617   1955.0327
   1904.1621   1955.0277
   1904.1610   1955.0228
   1904.1587   1955.0178
   1904.1555   1955.0129
   1904.1526   1955.0079
   1904.1497   1955.0031
   1904.1478   1954.9980
   1904.1453   1954.9932
   1904.1423   1954.9882
   1904.1387   1954.9833
   1904.1349   1954.9783
   1904.1309   1954.9734
   1904.1265   1954.9685
   1904.1224   1954.9635
   1904.1184   1954.9586
   1904.1145   1954.9537
   1904.1106   1954.9489
   1904.1077   1954.9438
   1904.1044   1954.9390
   1904.1008   1954.9341
   1904.0972   1954.9292
   1904.0936   1954.9243
   1904.0905   1954.9194
   1904.0875   1954.9146
   1904.0847   1954.9097
   1904.0820   1954.9048
   1904.0795   1954.8999
   1904.0768   1954.8950
   1904.0739   1954.8901
   1904.0706   1954.8853
   1904.0670   1954.8804
   1904.0637   1954.8755
   1904.0618   1954.8706
   1904.0604   1954.8658
   1904.0588   1954.8610
   1904.0571   1954.8561
   1904.0560   1954.8512
   1904.0546   1954.8464
   1904.0526   1954.8416
   1904.0500   1954.8368
   1904.0472   1954.8319
   1904.0441   1954.8270
   1904.0410   1954.8223
   1904.0387   1954.8174
   1904.0367   1954.8126
   1904.0348   1954.8077
   1904.0325   1954.8030
   1904.0310   1954.7982
   1904.0293   1954.7933
   1904.0272   1954.7886
   1904.0249   1954.7838
   1904.0222   1954.7789
   1904.0194   1954.7742
   1904.0165   1954.7694
   1904.0135   1954.7646
   1904.0103   1954.7599
   1904.0067   1954.7550
   1904.0035   1954.7502
   1904.0004   1954.7455
   1903.9973   1954.7407
   1903.9943   1954.7360
   1903.9913   1954.7312
   1903.9885   1954.7264
   1903.9857   1954.7217
   1903.9829   1954.7169
   1903.9802   1954.7122
   1903.9775   1954.7074
   1903.9750   1954.7028
   1903.9724   1954.6980
   1903.9698   1954.6932
   1903.9673   1954.6885
   1903.9648   1954.6838
   1903.9624   1954.6791
   1903.9600   1954.6743
   1903.9575   1954.6697
   1903.9551   1954.6649
   1903.9528   1954.6603
   1903.9504   1954.6555
   1903.9481   1954.6509
   1903.9458   1954.6461
   1903.9436   1954.6415
   1903.9413   1954.6367
   1903.9391   1954.6321
   1903.9369   1954.6273
   1903.9347   1954.6227
   1903.9325   1954.6180
   1903.9304   1954.6133
   1903.9282   1954.6086
   1903.9261   1954.6040
   1903.9241   1954.5994
   1903.9220   1954.5947
   1903.9199   1954.5900
   1903.9178   1954.5853
   1903.9158   1954.5807
   1903.9138   1954.5760
   1903.9117   1954.5714
   1903.9098   1954.5668
   1903.9078   1954.5621
   1903.9059   1954.5575
   1903.9039   1954.5529
   1903.9020   1954.5482
   1903.9000   1954.5436
   1903.8982   1954.5389
   1903.8962   1954.5343
   1903.8944   1954.5297
   1903.8925   1954.5251
   1903.8905   1954.5205
   1903.8885   1954.5159
   1903.8865   1954.5112
   1903.8844   1954.5066
   1903.8823   1954.5021
   1903.8801   1954.4974
   1903.8778   1954.4928
   1903.8755   1954.4883
   1903.8732   1954.4836
   1903.8707   1954.4791
   1903.8673   1954.4745
   1903.8630   1954.4698
   1903.8583   1954.4653
   1903.8530   1954.4607
   1903.8477   1954.4562
   1903.8422   1954.4515
   1903.8367   1954.4470
   1903.8312   1954.4424
   1903.8256   1954.4379
   1903.8199   1954.4333
   1903.8143   1954.4287
   1903.8087   1954.4242
   1903.8030   1954.4197
   1903.7972   1954.4150
   1903.7915   1954.4105
   1903.7858   1954.4060
   1903.7800   1954.4014
   1903.7742   1954.3969
   1903.7684   1954.3923
   1903.7626   1954.3878
   1903.7568   1954.3833
   1903.7510   1954.3787
   1903.7452   1954.3741
   1903.7394   1954.3696
   1903.7336   1954.3651
   1903.7278   1954.3606
   1903.7220   1954.3561
   1903.7162   1954.3516
   1903.7104   1954.3470
   1903.7047   1954.3425
   1903.6989   1954.3380
   1903.6931   1954.3335
   1903.6873   1954.3290
   1903.6815   1954.3245
   1903.6758   1954.3199
   1903.6700   1954.3154
   1903.6643   1954.3109
   1903.6586   1954.3065
   1903.6527   1954.3020
   1903.6470   1954.2975
   1903.6412   1954.2930
   1903.6355   1954.2885
   1903.6299   1954.2841
   1903.6241   1954.2795
   1903.6184   1954.2750
   1903.6127   1954.2706
   1903.6071   1954.2661
   1903.6013   1954.2616
   1903.5956   1954.2572
   1903.5900   1954.2527
   1903.5842   1954.2483
   1903.5786   1954.2438
   1903.5729   1954.2393
   1903.5673   1954.2349
   1903.5616   1954.2303
   1903.5559   1954.2260
   1903.5503   1954.2214
   1903.5447   1954.2170
   1903.5391   1954.2126
   1903.5334   1954.2081
   1903.5278   1954.2037
   1903.5222   1954.1993
   1903.5166   1954.1948
   1903.5110   1954.1904
   1903.5054   1954.1860
   1903.4998   1954.1815
   1903.4941   1954.1771
   1903.4885   1954.1727
   1903.4904   1954.1683
   1903.5354   1954.1639
   1903.6244   1954.1597
   1903.7024   1954.1826
   1903.7371   1954.1864
   1903.7584   1954.1824
   1903.7755   1954.1783
   1903.7920   1954.1743
   1903.8021   1954.1703
   1903.8102   1954.1663
   1903.8138   1954.1622
   1903.8158   1954.1582
   1903.8152   1954.1542
   1903.8136   1954.1501
   1903.8107   1954.1461
   1903.8069   1954.1420
   1903.8025   1954.1379
   1903.7974   1954.1339
   1903.7916   1954.1299