 Head values for selected MODFLOW cells
   1883.0486   1944.6394
   1886.5895   1944.6313
   1889.4774   1944.6268
   1891.8125   1944.6259
   1893.7213   1944.6283
   1895.3009   1944.6340
   1896.6249   1944.6431
   1897.7491   1944.6555
   1898.7157   1944.6711
   1899.5564   1944.6898
   1900.2954   1944.7118
   1900.9510   1944.7368
   1901.5375   1944.7649
   1902.0659   1944.7959
   1902.5448   1944.8298
   1902.9808   1944.8666
   1903.3798   1944.9062
   1903.7458   1944.9486
   1904.0830   1944.9937
   1904.3942   1945.0413
   1904.6820   1945.0914
   1904.9489   1945.1442
   1905.1967   1945.1992
   1905.4270   1945.2566
   1905.6415   1945.3162
   1905.8414   1945.3779
   1906.0278   1945.4419
   1906.2019   1945.5078
   1906.3646   1945.5757
   1906.5166   1945.6455
   1906.6588   1945.7172
   1906.7919   1945.7905
   1906.9161   1945.8656
   1907.0325   1945.9423
   1907.1411   1946.0205
   1907.2427   1946.1002
   1907.3375   1946.1813
   1907.4260   1946.2638
   1907.5087   1946.3475
   1907.5857   1946.4325
   1907.6576   1946.5187
   1907.7246   1946.6058
   1907.7870   1946.6941
   1907.8451   1946.7834
   1907.8990   1946.8737
   1907.9493   1946.9647
   1907.9960   1947.0566
   1908.0394   1947.1493
   1908.0796   1947.2427
   1908.1169   1947.3367
   1908.1515   1947.4314
   1908.1833   1947.5266
   1908.2129   1947.6224
   1908.2401   1947.7188
   1908.2651   1947.8154
   1908.2882   1947.9125
   1908.3093   1948.0100
   1908.3286   1948.1078
   1908.3463   1948.2058
   1908.3624   1948.3042
   1908.3770   1948.4027
   1908.3901   1948.5015
   1908.4020   1948.6002
   1908.4125   1948.6992
   1908.4219   1948.7982
   1908.4302   1948.8973
   1908.4379   1948.9965
   1908.4452   1949.0956
   1908.4523   1949.1946
   1908.4590   1949.2936
   1908.4656   1949.3925
   1908.4719   1949.4912
   1908.4781   1949.5900
   1908.4841   1949.6885
   1908.4900   1949.7867
   1908.4956   1949.8849
   1908.5009   1949.9828
   1908.5059   1950.0804
   1908.5105   1950.1779
   1908.5149   1950.2750
   1908.5189   1950.3718
   1908.5227   1950.4684
   1908.5260   1950.5646
   1908.5291   1950.6604
   1908.5315   1950.7560
   1908.5333   1950.8511
   1908.5344   1950.9459
   1908.5347   1951.0403
   1908.5342   1951.1343
   1908.5332   1951.2278
   1908.5321   1951.3209
   1908.5312   1951.4137
   1908.5302   1951.5060
   1908.5289   1951.5978
   1908.5272   1951.6892
   1908.5250   1951.7800
   1908.5222   1951.8705
   1908.5188   1951.9604
   1908.5148   1952.0498
   1908.5104   1952.1388
   1908.5054   1952.2273
   1908.4999   1952.3152
   1908.4941   1952.4027
   1908.4879   1952.4896
   1908.4812   1952.5759
   1908.4742   1952.6619
   1908.4668   1952.7472
   1908.4591   1952.8320
   1908.4510   1952.9163
   1908.4427   1953.0000
   1908.4342   1953.0833
   1908.4254   1953.1659
   1908.4164   1953.2480
   1908.4071   1953.3296
   1908.3977   1953.4106
   1908.3867   1953.4911
   1908.3746   1953.5710
   1908.3618   1953.6504
   1908.3481   1953.7292
   1908.3340   1953.8075
   1908.3192   1953.8853
   1908.3042   1953.9624
   1908.2887   1954.0391
   1908.2728   1954.1151
   1908.2567   1954.1906
   1908.2404   1954.2656
   1908.2238   1954.3400
   1908.2070   1954.4138
   1908.1903   1954.4872
   1908.1736   1954.5599
   1908.1570   1954.6322
   1908.1404   1954.7039
   1908.1239   1954.7750
   1908.1073   1954.8456
   1908.0906   1954.9156
   1908.0739   1954.9852
   1908.0570   1955.0542
   1908.0402   1955.1227
   1908.0232   1955.1906
   1908.0065   1955.2579
   1907.9897   1955.3236
   1907.9731   1955.3879
   1907.9565   1955.4508
   1907.9398   1955.5123
   1907.9235   1955.5725
   1907.9072   1955.6313
   1907.8911   1955.6890
   1907.8751   1955.7455
   1907.8591   1955.8008
   1907.8430   1955.8551
   1907.8271   1955.9083
   1907.8113   1955.9604
   1907.7955   1956.0116
   1907.7799   1956.0615
   1907.7644   1956.1105
   1907.7490   1956.1584
   1907.7340   1956.2054
   1907.7188   1956.2515
   1907.7035   1956.2966
   1907.6882   1956.3409
   1907.6731   1956.3843
   1907.6578   1956.4269
   1907.6427   1956.4686
   1907.6277   1956.5094
   1907.6125   1956.5494
   1907.5975   1956.5887
   1907.5826   1956.6272
   1907.5677   1956.6648
   1907.5529   1956.7018
   1907.5381   1956.7378
   1907.5233   1956.7732
   1907.5087   1956.8079
   1907.4940   1956.8418
   1907.4797   1956.8750
   1907.4657   1956.9075
   1907.4518   1956.9392
   1907.4380   1956.9703
   1907.4243   1957.0009
   1907.4108   1957.0306
   1907.3972   1957.0598
   1907.3838   1957.0883
   1907.3705   1957.1162
   1907.3572   1957.1436
   1907.3441   1957.1703
   1907.3311   1957.1964
   1907.3181   1957.2219
   1907.3051   1957.2469
   1907.2921   1957.2714
   1907.2795   1957.2953
   1907.2672   1957.3187
   1907.2551   1957.3416
   1907.2429   1957.3639
   1907.2308   1957.3859
   1907.2188   1957.4072
   1907.2067   1957.4281
   1907.1945   1957.4486
   1907.1823   1957.4685
   1907.1700   1957.4880
   1907.1577   1957.5072
   1907.1455   1957.5259
   1907.1334   1957.5441
   1907.1216   1957.5619
   1907.1099   1957.5793
   1907.0983   1957.5963
   1907.0868   1957.6130
   1907.0753   1957.6293
   1907.0643   1957.6451
   1907.0531   1957.6606
   1907.0424   1957.6758
   1907.0314   1957.6906
   1907.0203   1957.7051
   1907.0090   1957.7191
   1906.9977   1957.7329
   1906.9867   1957.7465
   1906.9755   1957.7595
   1906.9641   1957.7723
   1906.9526   1957.7849
   1906.9412   1957.7971
   1906.9296   1957.8090
   1906.9180   1957.8206
   1906.9066   1957.8319
   1906.8953   1957.8430
   1906.8839   1957.8538
   1906.8728   1957.8643
   1906.8617   1957.8745
   1906.8507   1957.8845
   1906.8397   1957.8942
   1906.8289   1957.9037
   1906.8180   1957.9128
   1906.8073   1957.9219
   1906.7966   1957.9305
   1906.7863   1957.9391
   1906.7759   1957.9474
   1906.7656   1957.9554
   1906.7555   1957.9633
   1906.7454   1957.9708
   1906.7350   1957.9781
   1906.7245   1957.9854
   1906.7139   1957.9923
   1906.7032   1957.9990
   1906.6926   1958.0056
   1906.6820   1958.0120
   1906.6714   1958.0181
   1906.6608   1958.0240
   1906.6501   1958.0299
   1906.6398   1958.0354
   1906.6295   1958.0409
   1906.6193   1958.0460
   1906.6094   1958.0511
   1906.5996   1958.0560
   1906.5900   1958.0607
   1906.5807   1958.0652
   1906.5715   1958.0696
   1906.5626   1958.0737
   1906.5540   1958.0779
   1906.5452   1958.0817
   1906.5364   1958.0854
   1906.5278   1958.0890
   1906.5190   1958.0924
   1906.5103   1958.0957
   1906.5015   1958.0988
   1906.4928   1958.1018
   1906.4840   1958.1046
   1906.4752   1958.1073
   1906.4668   1958.1099
   1906.4584   1958.1122
   1906.4501   1958.1145
   1906.4418   1958.1166
   1906.4336   1958.1187
   1906.4254   1958.1205
   1906.4171   1958.1223
   1906.4088   1958.1239
   1906.4004   1958.1254
   1906.3921   1958.1267
   1906.3835   1958.1281
   1906.3752   1958.1292
   1906.3668   1958.1301
   1906.3584   1958.1311
   1906.3501   1958.1318
   1906.3418   1958.1326
   1906.3336   1958.1331
   1906.3254   1958.1335
   1906.3173   1958.1339
   1906.3092   1958.1342
   1906.3013   1958.1343
   1906.2933   1958.1343
   1906.2854   1958.1343
   1906.2776   1958.1340
   1906.2699   1958.1338
   1906.2622   1958.1334
   1906.2545   1958.1329
   1906.2469   1958.1323
   1906.2394   1958.1317
   1906.2319   1958.1310
   1906.2245   1958.1301
   1906.2172   1958.1292
   1906.2098   1958.1282
   1906.2026   1958.1271
   1906.1956   1958.1259
   1906.1886   1958.1245
   1906.1815   1958.1232
   1906.1747   1958.1217
   1906.1677   1958.1201
   1906.1609   1958.1185
   1906.1541   1958.1168
   1906.1473   1958.1151
   1906.1405   1958.1132
   1906.1338   1958.1112
   1906.1272   1958.1093
   1906.1206   1958.1072
   1906.1141   1958.1050
   1906.1077   1958.1028
   1906.1013   1958.1005
   1906.0950   1958.0980
   1906.0886   1958.0956
   1906.0824   1958.0930
   1906.0760   1958.0905
   1906.0698   1958.0878
   1906.0637   1958.0851
   1906.0575   1958.0823
   1906.0515   1958.0795
   1906.0454   1958.0765
   1906.0394   1958.0735
   1906.0334   1958.0704
   1906.0276   1958.0674
   1906.0217   1958.0642
   1906.0160   1958.0609
   1906.0103   1958.0576
   1906.0045   1958.0543
   1905.9988   1958.0509
   1905.9932   1958.0474
   1905.9877   1958.0438
   1905.9821   1958.0403
   1905.9766   1958.0366
   1905.9712   1958.0330
   1905.9657   1958.0292
   1905.9603   1958.0254
   1905.9551   1958.0216
   1905.9497   1958.0177
   1905.9445   1958.0137
   1905.9392   1958.0096
   1905.9341   1958.0056
   1905.9290   1958.0016
   1905.9238   1957.9974
   1905.9188   1957.9932
   1905.9138   1957.9889
   1905.9088   1957.9846
   1905.9039   1957.9803
   1905.8990   1957.9760
   1905.8942   1957.9714
   1905.8893   1957.9670
   1905.8845   1957.9625
   1905.8798   1957.9579
   1905.8751   1957.9534
   1905.8704   1957.9487
   1905.8657   1957.9440
   1905.8612   1957.9392
   1905.8566   1957.9344
   1905.8521   1957.9297
   1905.8475   1957.9248
   1905.8431   1957.9199
   1905.8387   1957.9150
   1905.8344   1957.9100
   1905.8300   1957.9050
   1905.8256   1957.9000
   1905.8213   1957.8949
   1905.8171   1957.8898
   1905.8129   1957.8846
   1905.8087   1957.8795
   1905.8046   1957.8743
   1905.8004   1957.8690
   1905.7963   1957.8638
   1905.7922   1957.8584
   1905.7882   1957.8531
   1905.7843   1957.8477
   1905.7803   1957.8423
   1905.7764   1957.8369
   1905.7725   1957.8314
   1905.7686   1957.8259
   1905.7648   1957.8203
   1905.7609   1957.8148
   1905.7571   1957.8092
   1905.7533   1957.8036
   1905.7496   1957.7980
   1905.7458   1957.7922
   1905.7422   1957.7866
   1905.7385   1957.7809
   1905.7350   1957.7750
   1905.7313   1957.7693
   1905.7278   1957.7634
   1905.7242   1957.7577
   1905.7207   1957.7518
   1905.7173   1957.7458
   1905.7137   1957.7400
   1905.7103   1957.7340
   1905.7069   1957.7281
   1905.7035   1957.7222
   1905.7002   1957.7161
   1905.6968   1957.7100
   1905.6935   1957.7039
   1905.6902   1957.6976
   1905.6870   1957.6914
   1905.6837   1957.6852
   1905.6805   1957.6788
   1905.6774   1957.6725
   1905.6742   1957.6660
   1905.6710   1957.6597
   1905.6678   1957.6532
   1905.6648   1957.6466
   1905.6617   1957.6400
   1905.6587   1957.6334
   1905.6556   1957.6268
   1905.6526   1957.6201
   1905.6497   1957.6134
   1905.6466   1957.6067
   1905.6437   1957.6000
   1905.6407   1957.5931
   1905.6378   1957.5863
   1905.6350   1957.5795
   1905.6321   1957.5725
   1905.6293   1957.5657
   1905.6263   1957.5587
   1905.6238   1957.5518
   1905.6213   1957.5447
   1905.6188   1957.5918
   1905.6161   1957.6570
   1905.6135   1957.6676
   1905.6110   1957.6621
   1905.6084   1957.6615
   1905.6058   1957.6569
   1905.6033   1957.6539
   1905.6007   1957.6487
   1905.5981   1957.6442
   1905.5956   1957.6385
   1905.5930   1957.6331
   1905.5906   1957.6271
   1905.5880   1957.6208
   1905.5854   1957.6144
   1905.5830   1957.6078
   1905.5804   1957.6011
   1905.5779   1957.5941
   1905.5754   1957.5872
   1905.5730   1957.5800
   1905.5704   1957.5728
   1905.5680   1957.5654
   1905.5656   1957.5579
   1905.5631   1957.5504
   1905.5607   1957.5427
   1905.5582   1957.5350
   1905.5558   1957.5273
   1905.5535   1957.5195
   1905.5510   1957.5116
   1905.5487   1957.5037
   1905.5463   1957.4957
   1905.5439   1957.4877
   1905.5416   1957.4796
   1905.5393   1957.4716
   1905.5425   1957.4634
   1905.5613   1957.4552
   1905.5665   1957.4470
   1905.5695   1957.4388
   1905.5719   1957.4305
   1905.5746   1957.4222
   1905.5759   1957.4139
   1905.5769   1957.4056
   1905.5770   1957.3973
   1905.5768   1957.3889
   1905.5763   1957.3806
   1905.5756   1957.3722
   1905.5745   1957.3638
   1905.5732   1957.3553
   1905.5719   1957.3469
   1905.5704   1957.3385
   1905.5690   1957.3300
   1905.5674   1957.3215
   1905.5657   1957.3130
   1905.5640   1957.3046
   1905.5623   1957.2960
   1905.5604   1957.2875
   1905.5586   1957.2791
   1905.5568   1957.2705
   1905.5549   1957.2620
   1905.5530   1957.2534
   1905.5511   1957.2449
   1905.5493   1957.2363
   1905.5475   1957.2278
   1905.5455   1957.2192
   1905.5436   1957.2107
   1905.5417   1957.2021
   1905.5398   1957.1936
   1905.5378   1957.1851
   1905.5359   1957.1764
   1905.5338   1957.1678
   1905.5319   1957.1593
   1905.5298   1957.1508
   1905.5281   1957.1422
   1905.5265   1957.1337
   1905.5249   1957.1250
   1905.5233   1957.1165
   1905.5219   1957.1079
   1905.5204   1957.0994
   1905.5190   1957.0908
   1905.5176   1957.0822
   1905.5162   1957.0736
   1905.5148   1957.0651
   1905.5132   1957.0565
   1905.5115   1957.0480
   1905.5096   1957.0394
   1905.5078   1957.0309
   1905.5060   1957.0223
   1905.5042   1957.0138
   1905.5023   1957.0051
   1905.5006   1956.9966
   1905.4988   1956.9880
   1905.4969   1956.9795
   1905.4950   1956.9709
   1905.4930   1956.9625
   1905.4911   1956.9540
   1905.4890   1956.9454
   1905.4871   1956.9369
   1905.4851   1956.9283
   1905.4830   1956.9198
   1905.4811   1956.9114
   1905.4790   1956.9028
   1905.4771   1956.8943
   1905.4752   1956.8859
   1905.4734   1956.8773
   1905.4716   1956.8689
   1905.4698   1956.8604
   1905.4680   1956.8519
   1905.4663   1956.8434
   1905.4645   1956.8350
   1905.4628   1956.8265
   1905.4611   1956.8180
   1905.4594   1956.8096
   1905.4578   1956.8011
   1905.4561   1956.7927
   1905.4543   1956.7843
   1905.4528   1956.7758
   1905.4510   1956.7673
   1905.4493   1956.7589
   1905.4476   1956.7505
   1905.4459   1956.7421
   1905.4442   1956.7338
   1905.4425   1956.7253
   1905.4409   1956.7169
   1905.4392   1956.7085
   1905.4376   1956.7002
   1905.4359   1956.6918
   1905.4343   1956.6833
   1905.4327   1956.6750
   1905.4310   1956.6666
   1905.4297   1956.6583
   1905.4287   1956.6500
   1905.4280   1956.6416
   1905.4270   1956.6333
   1905.4259   1956.6250
   1905.4247   1956.6167
   1905.4236   1956.6084
   1905.4224   1956.6000
   1905.4209   1956.5917
   1905.4193   1956.5834
   1905.4177   1956.5751
   1905.4161   1956.5669
   1905.4147   1956.5586
   1905.4132   1956.5503
   1905.4121   1956.5420
   1905.4111   1956.5338
   1905.4100   1956.5255
   1905.4092   1956.5173
   1905.4082   1956.5090
   1905.4072   1956.5009
   1905.4061   1956.4926
   1905.4054   1956.4844
   1905.4044   1956.4762
   1905.4033   1956.4680
   1905.4021   1956.4597
   1905.4011   1956.4515
   1905.4005   1956.4434
   1905.3998   1956.4352
   1905.3987   1956.4270
   1905.3975   1956.4188
   1905.3961   1956.4108
   1905.3945   1956.4026
   1905.3929   1956.3944
   1905.3912   1956.3864
   1905.3896   1956.3782
   1905.3881   1956.3701
   1905.3864   1956.3619
   1905.3849   1956.3539
   1905.3833   1956.3457
   1905.3818   1956.3376
   1905.3802   1956.3296
   1905.3788   1956.3215
   1905.3773   1956.3135
   1905.3761   1956.3054
   1905.3749   1956.2974
   1905.3738   1956.2893
   1905.3727   1956.2812
   1905.3716   1956.2732
   1905.3705   1956.2651
   1905.3693   1956.2572
   1905.3679   1956.2491
   1905.3663   1956.2412
   1905.3646   1956.2332
   1905.3628   1956.2252
   1905.3608   1956.2172
   1905.3589   1956.2092
   1905.3569   1956.2013
   1905.3549   1956.1934
   1905.3529   1956.1854
   1905.3508   1956.1775
   1905.3488   1956.1696
   1905.3470   1956.1616
   1905.3455   1956.1537
   1905.3440   1956.1458
   1905.3430   1956.1378
   1905.3419   1956.1300
   1905.3409   1956.1221
   1905.3402   1956.1143
   1905.3395   1956.1063
   1905.3385   1956.0985
   1905.3379   1956.0906
   1905.3373   1956.0828
   1905.3365   1956.0750
   1905.3358   1956.0671
   1905.3347   1956.0593
   1905.3333   1956.0515
   1905.3317   1956.0437
   1905.3300   1956.0359
   1905.3281   1956.0281
   1905.3263   1956.0203
   1905.3246   1956.0125
   1905.3229   1956.0048
   1905.3212   1955.9969
   1905.3196   1955.9893
   1905.3180   1955.9814
   1905.3163   1955.9738
   1905.3147   1955.9659
   1905.3132   1955.9583
   1905.3116   1955.9506
   1905.3099   1955.9429
   1905.3081   1955.9352
   1905.3063   1955.9275
   1905.3052   1955.9198
   1905.3040   1955.9121
   1905.3027   1955.9044
   1905.3013   1955.8967
   1905.2998   1955.8892
   1905.2983   1955.8815
   1905.2969   1955.8739
   1905.2952   1955.8662
   1905.2936   1955.8586
   1905.2917   1955.8510
   1905.2899   1955.8434
   1905.2880   1955.8358
   1905.2859   1955.8282
   1905.2838   1955.8207
   1905.2817   1955.8131
   1905.2797   1955.8055
   1905.2776   1955.7980
   1905.2755   1955.7904
   1905.2734   1955.7828
   1905.2712   1955.7753
   1905.2692   1955.7678
   1905.2670   1955.7603
   1905.2653   1955.7528
   1905.2635   1955.7452
   1905.2617   1955.7378
   1905.2598   1955.7303
   1905.2578   1955.7228
   1905.2557   1955.7153
   1905.2537   1955.7079
   1905.2516   1955.7004
   1905.2495   1955.6930
   1905.2474   1955.6855
   1905.2454   1955.6781
   1905.2433   1955.6708
   1905.2412   1955.6633
   1905.2390   1955.6559
   1905.2368   1955.6486
   1905.2347   1955.6411
   1905.2325   1955.6338
   1905.2305   1955.6263
   1905.2283   1955.6190
   1905.2261   1955.6117
   1905.2240   1955.6044
   1905.2218   1955.5969
   1905.2197   1955.5896
   1905.2178   1955.5823
   1905.2158   1955.5750
   1905.2139   1955.5677
   1905.2118   1955.5604
   1905.2098   1955.5531
   1905.2078   1955.5458
   1905.2057   1955.5386
   1905.2036   1955.5312
   1905.2015   1955.5240
   1905.1993   1955.5167
   1905.1973   1955.5095
   1905.1952   1955.5023
   1905.1931   1955.4951
   1905.1909   1955.4879
   1905.1888   1955.4807
   1905.1868   1955.4735
   1905.1847   1955.4663
   1905.1825   1955.4591
   1905.1804   1955.4519
   1905.1783   1955.4447
   1905.1763   1955.4376
   1905.1742   1955.4304
   1905.1721   1955.4233
   1905.1699   1955.4161
   1905.1678   1955.4091
   1905.1658   1955.4019
   1905.1637   1955.3948
   1905.1616   1955.3877
   1905.1595   1955.3806
   1905.1575   1955.3735
   1905.1554   1955.3665
   1905.1533   1955.3594
   1905.1512   1955.3523
   1905.1492   1955.3452
   1905.1471   1955.3381
   1905.1450   1955.3312
   1905.1429   1955.3241
   1905.1409   1955.3170
   1905.1388   1955.3101
   1905.1367   1955.3030
   1905.1346   1955.2960
   1905.1327   1955.2891
   1905.1306   1955.2821
   1905.1285   1955.2750
   1905.1265   1955.2681
   1905.1244   1955.2611
   1905.1223   1955.2542
   1905.1202   1955.2472
   1905.1183   1955.2404
   1905.1162   1955.2334
   1905.1141   1955.2264
   1905.1121   1955.2195
   1905.1100   1955.2126
   1905.1079   1955.2057
   1905.1058   1955.1989
   1905.1039   1955.1919
   1905.1018   1955.1851
   1905.0997   1955.1782
   1905.0977   1955.1714
   1905.0956   1955.1646
   1905.0935   1955.1577
   1905.0914   1955.1509
   1905.0895   1955.1440
   1905.0874   1955.1372
   1905.0853   1955.1304
   1905.0833   1955.1235
   1905.0812   1955.1168
   1905.0791   1955.1100
   1905.0770   1955.1031
   1905.0750   1955.0964
   1905.0729   1955.0897
   1905.0708   1955.0829
   1905.0687   1955.0762
   1905.0668   1955.0695
   1905.0647   1955.0627
   1905.0626   1955.0560
   1905.0605   1955.0493
   1905.0585   1955.0426
   1905.0574   1955.0359
   1905.0579   1955.0292
   1905.0587   1955.0225
   1905.0590   1955.0157
   1905.0588   1955.0092
   1905.0585   1955.0024
   1905.0579   1954.9958
   1905.0570   1954.9891
   1905.0559   1954.9825
   1905.0547   1954.9758
   1905.0533   1954.9692
   1905.0519   1954.9626
   1905.0504   1954.9561
   1905.0488   1954.9495
   1905.0472   1954.9429
   1905.0455   1954.9363
   1905.0438   1954.9297
   1905.0420   1954.9231
   1905.0403   1954.9165
   1905.0385   1954.9100
   1905.0366   1954.9034
   1905.0348   1954.8969
   1905.0328   1954.8904
   1905.0310   1954.8838
   1905.0292   1954.8773
   1905.0272   1954.8708
   1905.0253   1954.8643
   1905.0234   1954.8578
   1905.0215   1954.8513
   1905.0195   1954.8448
   1905.0176   1954.8384
   1905.0156   1954.8319
   1905.0137   1954.8254
   1905.0117   1954.8190
   1905.0420   1954.8125
   1905.0509   1954.8063
   1905.0554   1954.8003
   1905.0597   1954.7946
   1905.0615   1954.7889
   1905.0629   1954.7832
   1905.0630   1954.7775
   1905.0627   1954.7717
   1905.0619   1954.7660
   1905.0608   1954.7603
   1905.0594   1954.7545
   1905.0577   1954.7487
   1905.0559   1954.7429
   1905.0540   1954.7371
   1905.0520   1954.7312
   1905.0500   1954.7253
   1905.0480   1954.7195
   1905.0460   1954.7136
   1905.0439   1954.7078
   1905.0419   1954.7019
   1905.0399   1954.6959
   1905.0380   1954.6901
   1905.0359   1954.6841
   1905.0338   1954.6782
   1905.0317   1954.6722
   1905.0295   1954.6663
   1905.0273   1954.6603
   1905.0251   1954.6543
   1905.0229   1954.6483
   1905.0208   1954.6423
   1905.0184   1954.6364
   1905.0162   1954.6304
   1905.0139   1954.6244
   1905.0121   1954.6184
   1905.0104   1954.6123
   1905.0088   1954.6063
   1905.0071   1954.6003
   1905.0054   1954.5942
   1905.0037   1954.5883
   1905.0018   1954.5823
   1905.0000   1954.5762
   1904.9982   1954.5702
   1904.9962   1954.5641
   1904.9941   1954.5581
   1904.9921   1954.5521
   1904.9899   1954.5460
   1904.9874   1954.5400
   1904.9851   1954.5339
   1904.9825   1954.5280
   1904.9801   1954.5220
   1904.9775   1954.5159
   1904.9751   1954.5099
   1904.9725   1954.5039
   1904.9700   1954.4978
   1904.9674   1954.4918
   1904.9648   1954.4858
   1904.9624   1954.4799
   1904.9600   1954.4738
   1904.9578   1954.4678
   1904.9558   1954.4618
   1904.9537   1954.4558
   1904.9515   1954.4498
   1904.9492   1954.4438
   1904.9469   1954.4379
   1904.9445   1954.4319
   1904.9420   1954.4259
   1904.9396   1954.4199
   1904.9370   1954.4139
   1904.9347   1954.4080
   1904.9324   1954.4020
   1904.9301   1954.3960
   1904.9277   1954.3901
   1904.9254   1954.3842
   1904.9232   1954.3782
   1904.9210   1954.3723
   1904.9186   1954.3663
   1904.9161   1954.3604
   1904.9136   1954.3545
   1904.9111   1954.3485
   1904.9086   1954.3427
   1904.9060   1954.3368
   1904.9034   1954.3308
   1904.9009   1954.3250
   1904.8983   1954.3191
   1904.8958   1954.3132
   1904.8932   1954.3073
   1904.8906   1954.3014
   1904.8881   1954.2955
   1904.8854   1954.2897
   1904.8827   1954.2838
   1904.8801   1954.2780
   1904.8774   1954.2722
   1904.8749   1954.2664
   1904.8722   1954.2605
   1904.8696   1954.2546
   1904.8669   1954.2489
   1904.8644   1954.2430
   1904.8617   1954.2373
   1904.8591   1954.2314
   1904.8566   1954.2257
   1904.8540   1954.2198
   1904.8514   1954.2141
   1904.8489   1954.2084
   1904.8463   1954.2026
   1904.8438   1954.1969
   1904.8413   1954.1912
   1904.8387   1954.1854
   1904.8363   1954.1797
   1904.8337   1954.1740
   1904.8313   1954.1682
   1904.8287   1954.1625
   1904.8262   1954.1567
   1904.8237   1954.1511
   1904.8213   1954.1454
   1904.8188   1954.1398
   1904.8163   1954.1340
   1904.8138   1954.1284
   1904.8119   1954.1227
   1904.8099   1954.1171
   1904.8077   1954.1115
   1904.8057   1954.1057
   1904.8038   1954.1001
   1904.8018   1954.0945
   1904.7999   1954.0889
   1904.7979   1954.0833
   1904.7958   1954.0776
   1904.7936   1954.0720
   1904.7914   1954.0664
   1904.7892   1954.0609
   1904.7872   1954.0553
   1904.7855   1954.0497
   1904.7837   1954.0442
   1904.7816   1954.0386
   1904.7795   1954.0331
   1904.7777   1954.0275
   1904.7761   1954.0220
   1904.7743   1954.0165
   1904.7731   1954.0109
   1904.7717   1954.0054
   1904.7701   1953.9999
   1904.7683   1953.9944
   1904.7664   1953.9889
   1904.7646   1953.9834
   1904.7627   1953.9779
   1904.7606   1953.9724
   1904.7585   1953.9669
   1904.7566   1953.9615
   1904.7546   1953.9561
   1904.7524   1953.9506
   1904.7502   1953.9452
   1904.7478   1953.9397
   1904.7452   1953.9343
   1904.7429   1953.9290
   1904.7404   1953.9235
   1904.7379   1953.9181
   1904.7355   1953.9127
   1904.7333   1953.9073
   1904.7311   1953.9020
   1904.7291   1953.8966
   1904.7273   1953.8912
   1904.7256   1953.8859
   1904.7239   1953.8805
   1904.7223   1953.8751
   1904.7206   1953.8698
   1904.7188   1953.8645
   1904.7167   1953.8591
   1904.7146   1953.8538
   1904.7124   1953.8485
   1904.7101   1953.8431
   1904.7078   1953.8379
   1904.7053   1953.8326
   1904.7028   1953.8273
   1904.7002   1953.8220
   1904.6976   1953.8168
   1904.6952   1953.8115
   1904.6926   1953.8063
   1904.6902   1953.8010
   1904.6881   1953.7958
   1904.6860   1953.7905
   1904.6842   1953.7853
   1904.6825   1953.7800
   1904.6807   1953.7748
   1904.6790   1953.7697
   1904.6774   1953.7644
   1904.6755   1953.7593
   1904.6736   1953.7540
   1904.6718   1953.7489
   1904.6698   1953.7437
   1904.6675   1953.7385
   1904.6649   1953.7334
   1904.6622   1953.7281
   1904.6593   1953.7230
   1904.6564   1953.7179
   1904.6539   1953.7128
   1904.6515   1953.7076
   1904.6488   1953.7025
   1904.6459   1953.6974
   1904.6428   1953.6923
   1904.6399   1953.6871
   1904.6368   1953.6821
   1904.6339   1953.6770
   1904.6310   1953.6719
   1904.6279   1953.6669
   1904.6249   1953.6617
   1904.6217   1953.6567
   1904.6185   1953.6516
   1904.6152   1953.6466
   1904.6121   1953.6415
   1904.6089   1953.6365
   1904.6056   1953.6315
   1904.6024   1953.6265
   1904.5992   1953.6215
   1904.5962   1953.6165
   1904.5930   1953.6115
   1904.5898   1953.6064
   1904.5867   1953.6014
   1904.5835   1953.5964
   1904.5803   1953.5914
   1904.5773   1953.5864
   1904.5742   1953.5815
   1904.5710   1953.5765
   1904.5680   1953.5717
   1904.5648   1953.5667
   1904.5616   1953.5618
   1904.5586   1953.5568
   1904.5555   1953.5519
   1904.5527   1953.5469
   1904.5499   1953.5420
   1904.5471   1953.5371
   1904.5444   1953.5322
   1904.5417   1953.5273
   1904.5391   1953.5225
   1904.5363   1953.5176
   1904.5333   1953.5127
   1904.5304   1953.5078
   1904.5275   1953.5029
   1904.5247   1953.4980
   1904.5219   1953.4932
   1904.5190   1953.4884
   1904.5164   1953.4835
   1904.5135   1953.4786
   1904.5109   1953.4739
   1904.5081   1953.4690
   1904.5052   1953.4642
   1904.5024   1953.4595
   1904.4995   1953.4546
   1904.4966   1953.4498
   1904.4937   1953.4451
   1904.4907   1953.4402
   1904.4877   1953.4354
   1904.4846   1953.4307
   1904.4817   1953.4259
   1904.4786   1953.4211
   1904.4757   1953.4164
   1904.4728   1953.4116
   1904.4698   1953.4069
   1904.4668   1953.4022
   1904.4639   1953.3975
   1904.4609   1953.3927
   1904.4580   1953.3881
   1904.4552   1953.3833
   1904.4523   1953.3785
   1904.4493   1953.3739
   1904.4464   1953.3693
   1904.4435   1953.3645
   1904.4407   1953.3599
   1904.4377   1953.3552
   1904.4348   1953.3505
   1904.4319   1953.3458
   1904.4291   1953.3412
   1904.4261   1953.3365
   1904.4232   1953.3319
   1904.4204   1953.3273
   1904.4175   1953.3226
   1904.4146   1953.3180
   1904.4117   1953.3134
   1904.4088   1953.3087
   1904.4059   1953.3042
   1904.4031   1953.2996
   1904.4001   1953.2949
   1904.3973   1953.2904
   1904.3944   1953.2858
   1904.3916   1953.2812
   1904.3887   1953.2766
   1904.3859   1953.2721
   1904.3829   1953.2675
   1904.3800   1953.2629
   1904.3772   1953.2584
   1904.3743   1953.2539
   1904.3715   1953.2493
   1904.3685   1953.2448
   1904.3657   1953.2402
   1904.3629   1953.2357
   1904.3600   1953.2312
   1904.3572   1953.2267
   1904.3542   1953.2222
   1904.3514   1953.2177
   1904.3485   1953.2133
   1904.3457   1953.2087
   1904.3429   1953.2042
   1904.3400   1953.1997
   1904.3372   1953.1953
   1904.3342   1953.1908
   1904.3314   1953.1864
   1904.3286   1953.1819
   1904.3257   1953.1775
   1904.3229   1953.1730
   1904.3199   1953.1686
   1904.3171   1953.1642
   1904.3143   1953.1598
   1904.3114   1953.1553
   1904.3085   1953.1509
   1904.3054   1953.1465
   1904.3025   1953.1421
   1904.2994   1953.1377
   1904.2965   1953.1333
   1904.2935   1953.1289
   1904.2904   1953.1245
   1904.2874   1953.1201
   1904.2843   1953.1158
   1904.2812   1953.1115
   1904.2782   1953.1071
   1904.2751   1953.1028
   1904.2721   1953.0984
   1904.2690   1953.0941
   1904.2660   1953.0897
   1904.2631   1953.0854
   1904.2600   1953.0811
   1904.2570   1953.0768
   1904.2539   1953.0724
   1904.2510   1953.0681
   1904.2479   1953.0638
   1904.2449   1953.0596
   1904.2418   1953.0553
   1904.2389   1953.0510
   1904.2358   1953.0468
   1904.2329   1953.0425
   1904.2299   1953.0382
   1904.2268   1953.0339
   1904.2239   1953.0297
   1904.2208   1953.0254
   1904.2179   1953.0211
   1904.2148   1953.0168
   1904.2119   1953.0127
   1904.2089   1953.0084
   1904.2059   1953.0042
   1904.2029   1953.0000
   1904.2000   1952.9957
   1904.1969   1952.9916
   1904.1940   1952.9873
   1904.1909   1952.9832
   1904.1880   1952.9790
   1904.1851   1952.9747
   1904.1820   1952.9706
   1904.1791   1952.9664
   1904.1760   1952.9623
   1904.1731   1952.9581
   1904.1702   1952.9540
   1904.1671   1952.9498
   1904.1642   1952.9457
   1904.1613   1952.9415
   1904.1582   1952.9374
   1904.1553   1952.9332
   1904.1523   1952.9291
   1904.1494   1952.9249
   1904.1464   1952.9208
   1904.1434   1952.9167
   1904.1405   1952.9126
   1904.1376   1952.9084
   1904.1345   1952.9044
   1904.1316   1952.9003
   1904.1287   1952.8962
   1904.1257   1952.8921
   1904.1227   1952.8881
   1904.1198   1952.8840
   1904.1168   1952.8799
   1904.1139   1952.8759
   1904.1108   1952.8718
   1904.1079   1952.8678
   1904.1050   1952.8638
   1904.1021   1952.8602
   1904.0991   1952.9077
   1904.0961   1952.9176
   1904.0931   1952.9138
   1904.0902   1952.9100
   1904.0873   1952.9062
   1904.0844   1952.9023
   1904.0813   1952.8986
   1904.0784   1952.8948
   1904.0754   1952.8909
   1904.0725   1952.8871
   1904.0696   1952.8832
   1904.0667   1952.8793
   1904.0637   1952.8755
   1904.0607   1952.8716
   1904.0577   1952.8677
   1904.0548   1952.8638