 Head values for selected MODFLOW cells
   2649.66   2264.76   2194.12   2117.49   2252.79   2253.86   2146.85   2089.00   2074.89   1869.45
   2740.51   2264.78   2193.93   2117.54   2252.80   2253.76   2146.85   2088.97   2074.91   1870.14
   2795.88   2264.80   2193.77   2117.58   2252.81   2253.67   2146.84   2088.94   2074.93   1870.70
   2828.71   2264.83   2193.63   2117.63   2252.82   2253.59   2146.83   2088.91   2074.96   1870.77
   2847.82   2264.86   2193.49   2117.68   2252.83   2253.53   2146.82   2088.88   2074.98   1870.78
   2859.54   2264.90   2193.35   2117.73   2252.84   2253.49   2146.81   2088.86   2075.00   1870.80
   2867.14   2264.93   2193.22   2117.77   2252.85   2253.46   2146.81   2088.83   2075.02   1870.83
   2871.96   2264.96   2193.08   2117.82   2252.86   2253.43   2146.80   2088.80   2075.04   1870.83
   2874.80   2265.00   2192.95   2117.87   2252.87   2253.40   2146.79   2088.77   2075.06   1870.85
   2876.26   2265.03   2192.82   2117.92   2252.88   2253.38   2146.78   2088.74   2075.08   1870.85
   2876.75   2265.06   2192.70   2118.07   2252.89   2253.35   2146.77   2088.71   2075.11   1870.85
   2876.59   2265.10   2192.57   2118.10   2252.90   2253.32   2146.77   2088.68   2075.14   1870.85
   2875.98   2265.13   2192.45   2118.10   2252.91   2253.30   2146.76   2088.65   2075.17   1870.85
   2875.18   2265.17   2192.32   2118.10   2252.92   2253.27   2146.75   2088.62   2075.20   1870.85
   2874.89   2265.20   2192.20   2118.10   2252.93   2253.25   2146.74   2088.59   2075.23   1870.85
   2875.26   2265.23   2192.08   2118.10   2252.95   2253.22   2146.73   2088.56   2075.26   1870.85
   2876.87   2265.87   2191.96   2118.10   2252.96   2253.20   2146.73   2088.53   2075.30   1870.85
   2881.67   2266.21   2191.85   2118.10   2252.97   2253.17   2146.72   2088.51   2075.33   1870.85
   2887.27   2266.24   2191.73   2118.09   2252.98   2253.15   2146.71   2088.48   2075.44   1870.85
   2892.76   2266.27   2191.62   2118.09   2252.99   2253.12   2146.70   2088.45   2076.25   1870.85
   2897.84   2266.29   2191.51   2118.09   2253.00   2253.10   2146.69   2088.42   2076.83   1870.85
   2902.45   2266.31   2191.40   2118.09   2253.01   2253.08   2146.69   2088.40   2077.31   1870.86
   2906.57   2266.32   2191.29   2118.09   2253.02   2253.05   2146.68   2088.38   2077.69   1870.85
   2910.23   2266.34   2191.18   2118.09   2253.03   2253.03   2146.67   2088.35   2078.01   1870.85
   2913.44   2266.35   2191.07   2118.09   2253.04   2253.00   2146.66   2088.33   2078.26   1870.85
   2916.23   2266.35   2190.97   2118.09   2253.05   2252.98   2146.66   2088.31   2078.46   1870.85
   2918.61   2266.36   2190.86   2118.09   2253.06   2252.95   2146.65   2088.29   2078.63   1870.85
   2920.63   2266.36   2190.76   2118.09   2253.07   2252.93   2146.64   2088.26   2078.77   1870.84
   2922.31   2266.37   2190.66   2118.09   2253.08   2252.91   2146.63   2088.24   2078.88   1870.84
   2923.69   2266.37   2190.56   2118.09   2253.09   2252.88   2146.62   2088.22   2078.97   1870.84
   2924.79   2266.37   2190.46   2118.09   2253.10   2252.86   2146.62   2088.20   2079.04   1870.83
   2925.64   2266.37   2190.37   2118.09   2253.11   2252.83   2146.61   2088.18   2079.10   1870.90
   2926.27   2266.37   2190.28   2118.09   2253.12   2252.81   2146.60   2088.15   2079.16   1870.90
   2926.70   2266.37   2190.20   2118.09   2253.13   2252.79   2146.59   2088.13   2079.20   1870.89
   2926.96   2266.37   2190.11   2118.09   2253.15   2252.76   2146.58   2088.11   2079.24   1870.89
   2927.07   2266.37   2190.03   2118.09   2253.16   2252.74   2146.58   2088.09   2079.27   1870.89
   2927.05   2266.37   2189.95   2118.09   2253.17   2252.71   2146.57   2088.07   2079.29   1870.89
   2926.98   2266.37   2189.86   2118.09   2253.18   2252.69   2146.56   2088.04   2079.31   1870.88
   2926.88   2266.37   2189.78   2118.09   2253.19   2252.67   2146.55   2088.02   2079.33   1870.88
   2926.79   2266.36   2189.70   2118.09   2253.20   2252.64   2146.55   2088.00   2079.35   1870.88
   2926.84   2266.36   2189.62   2118.09   2253.21   2252.62   2146.54   2087.98   2079.36   1870.87
   2927.04   2266.36   2189.54   2118.09   2253.22   2252.60   2146.53   2087.95   2079.38   1870.87
   2927.36   2266.36   2189.47   2118.09   2253.23   2252.57   2146.52   2087.93   2079.39   1870.87
   2927.74   2266.35   2189.39   2118.09   2253.24   2252.55   2146.51   2087.91   2079.41   1870.86
   2928.16   2266.35   2189.31   2118.09   2253.25   2252.53   2146.51   2087.88   2079.42   1870.86
   2928.57   2266.35   2189.24   2118.09   2253.26   2252.51   2146.50   2087.86   2079.44   1870.86
   2928.95   2266.34   2189.16   2118.09   2253.27   2252.49   2146.49   2087.84   2079.45   1870.86
   2929.29   2266.34   2189.09   2118.09   2253.40   2252.47   2146.48   2087.81   2079.47   1870.85
   2929.57   2266.34   2189.02   2118.09   2253.42   2252.45   2146.47   2087.79   2079.48   1870.85
   2929.79   2266.33   2188.95   2118.09   2253.42   2252.43   2146.47   2087.77   2079.50   1870.85
   2929.93   2266.33   2188.88   2118.09   2253.42   2252.41   2146.46   2087.74   2079.51   1870.84
   2930.01   2266.33   2188.81   2118.09   2253.42   2252.39   2146.45   2087.72   2079.52   1870.84
   2930.02   2266.32   2188.74   2118.09   2253.42   2252.37   2146.44   2087.70   2079.54   1870.84
   2929.96   2266.32   2188.67   2118.09   2253.42   2252.35   2146.44   2087.67   2079.55   1870.84
   2929.86   2266.31   2188.60   2118.09   2253.42   2252.33   2146.43   2087.65   2079.56   1870.83
   2929.77   2266.31   2188.53   2118.09   2253.42   2252.32   2146.42   2087.63   2079.57   1870.83
   2929.68   2266.31   2188.47   2118.09   2253.42   2252.30   2146.41   2087.60   2079.58   1870.83
   2929.59   2266.30   2188.40   2118.09   2253.42   2252.29   2146.41   2087.58   2079.60   1870.83
   2929.50   2266.30   2188.34   2118.09   2253.42   2252.27   2146.40   2087.55   2079.61   1870.82
   2929.40   2266.29   2188.27   2118.09   2253.42   2252.25   2146.39   2087.53   2079.62   1870.82
   2929.27   2266.29   2188.20   2118.09   2253.42   2252.24   2146.38   2087.51   2079.63   1870.78
   2929.11   2266.28   2188.14   2118.09   2253.42   2252.22   2146.37   2087.48   2079.64   1870.78
   2928.91   2266.28   2188.07   2118.09   2253.42   2252.21   2146.37   2087.46   2079.65   1870.78
   2928.66   2266.28   2188.00   2118.09   2253.42   2252.20   2146.36   2087.43   2079.66   1871.03
   2928.37   2266.27   2187.94   2118.09   2253.42   2252.18   2146.35   2087.41   2079.67   1870.79
   2928.03   2266.27   2187.88   2118.09   2253.42   2252.17   2146.34   2087.38   2079.68   1870.78
   2927.64   2266.26   2187.81   2118.09   2253.42   2252.16   2146.34   2087.36   2079.69   1870.77
   2927.20   2266.26   2187.75   2118.09   2253.42   2252.15   2146.33   2087.33   2079.70   1870.77
   2926.72   2266.25   2187.69   2118.09   2253.42   2252.14   2146.32   2087.31   2079.70   1870.77
   2926.19   2266.25   2187.63   2118.09   2253.42   2252.13   2146.31   2087.29   2079.71   1870.76
   2925.61   2266.24   2187.56   2118.09   2253.42   2252.11   2146.30   2087.26   2079.72   1870.76
   2925.00   2266.24   2187.51   2118.09   2253.42   2252.10   2146.30   2087.24   2079.72   1870.76
   2924.34   2266.23   2187.45   2118.09   2253.42   2252.10   2146.29   2087.21   2079.73   1870.76
   2923.65   2266.23   2187.39   2118.09   2253.42   2252.09   2146.28   2087.19   2079.74   1870.76
   2922.92   2266.22   2187.33   2118.09   2253.42   2252.09   2146.27   2087.16   2079.74   1870.75
   2922.16   2266.22   2187.27   2118.09   2253.42   2252.09   2146.27   2087.14   2079.75   1870.75
   2921.37   2266.22   2187.22   2118.09   2253.42   2252.10   2146.26   2087.11   2079.75   1870.75
   2920.54   2266.21   2187.16   2118.09   2253.42   2252.11   2146.25   2087.09   2079.77   1870.75
   2919.69   2266.21   2187.10   2118.09   2253.42   2252.14   2146.24   2087.06   2079.80   1870.75
   2918.81   2266.20   2187.05   2118.09   2253.42   2252.16   2146.24   2087.04   2079.82   1870.74
   2917.91   2266.20   2187.00   2118.09   2253.42   2252.18   2146.23   2087.01   2079.85   1870.74
   2916.98   2266.19   2186.94   2118.09   2253.42   2252.21   2146.22   2086.99   2079.87   1870.74
   2916.02   2266.19   2186.89   2118.09   2253.42   2252.24   2146.21   2086.96   2079.88   1870.74
   2915.05   2266.18   2186.84   2118.09   2253.42   2252.27   2146.21   2086.94   2079.90   1870.74
   2914.05   2266.18   2186.79   2118.09   2253.42   2252.30   2146.20   2086.91   2079.91   1871.22
   2913.03   2266.17   2186.73   2118.09   2253.42   2252.33   2146.19   2086.89   2079.92   1871.68
   2911.99   2266.17   2186.68   2118.09   2253.42   2252.36   2146.19   2086.86   2079.92   1871.68
   2910.92   2266.16   2186.63   2118.09   2253.42   2252.39   2146.18   2086.84   2079.93   1870.84
   2909.84   2266.16   2186.58   2118.09   2253.42   2252.42   2146.18   2086.81   2079.93   1870.79
   2908.75   2266.15   2186.54   2118.09   2253.42   2252.45   2146.18   2086.79   2079.93   1870.75
   2907.64   2266.15   2186.49   2118.09   2253.42   2252.49   2146.17   2086.76   2079.94   1870.74
   2906.52   2266.14   2186.45   2118.09   2253.42   2252.52   2146.17   2086.74   2079.94   1870.80
   2905.39   2266.13   2186.41   2118.09   2253.42   2252.55   2146.17   2086.71   2079.94   1870.79
   2904.24   2266.13   2186.38   2118.09   2253.42   2252.58   2146.17   2086.69   2079.94   1871.26
   2903.07   2266.12   2186.35   2118.09   2253.42   2252.61   2146.17   2086.66   2079.94   1871.68
   2901.90   2266.12   2186.36   2118.09   2253.42   2252.65   2146.17   2086.64   2079.94   1871.68
   2902.71   2266.15   2186.36   2118.09   2253.42   2252.68   2146.17   2086.61   2079.94   1871.68
   2904.02   2266.17   2186.34   2118.09   2253.42   2252.71   2146.17   2086.58   2079.94   1871.60
   2904.59   2266.16   2186.31   2118.09   2253.42   2252.74   2146.17   2086.56   2079.94   1871.13
   2904.20   2266.14   2186.26   2118.09   2253.42   2252.87   2146.17   2086.53   2079.93   1871.17
   2903.08   2266.12   2186.22   2118.09   2253.42   2252.93   2146.17   2086.51   2079.93   1870.89
   2901.58   2266.11   2186.19   2118.09   2253.42   2252.98   2146.17   2086.48   2079.93   1870.85
   2899.93   2266.10   2186.15   2118.09   2253.42   2253.03   2146.17   2086.46   2079.93   1870.75
   2898.25   2266.09   2186.11   2118.09   2253.42   2253.07   2146.17   2086.43   2079.93   1871.29
   2896.58   2266.08   2186.08   2118.09   2253.42   2253.11   2146.17   2086.41   2079.92   1870.86
   2894.92   2266.08   2186.04   2118.09   2253.42   2253.15   2146.17   2086.38   2079.92   1871.39
   2893.29   2266.07   2186.01   2118.09   2253.42   2253.18   2146.17   2086.36   2079.92   1870.76
   2891.67   2266.06   2185.97   2118.09   2253.42   2253.25   2146.17   2086.33   2079.92   1871.43
   2890.07   2266.06   2185.94   2118.09   2253.42   2253.29   2146.17   2086.31   2079.92   1870.88
   2888.47   2266.05   2185.90   2118.09   2253.42   2253.33   2146.17   2086.28   2079.91   1870.86
   2886.88   2266.04   2185.87   2118.09   2253.43   2253.37   2146.17   2086.25   2079.91   1870.84
   2885.29   2266.04   2185.87   2118.09   2253.43   2253.41   2146.17   2086.23   2079.91   1871.54
   2883.71   2266.03   2185.84   2118.09   2253.43   2253.44   2146.17   2086.20   2079.90   1870.89
   2882.13   2266.03   2185.82   2118.09   2253.43   2253.48   2146.17   2086.18   2079.90   1871.30
   2880.54   2266.02   2185.79   2118.09   2253.43   2253.51   2146.17   2086.15   2079.90   1871.44
   2878.95   2266.02   2185.75   2118.09   2253.43   2253.54   2146.17   2086.13   2079.90   1871.61
   2878.99   2266.04   2185.81   2118.09   2253.43   2253.57   2146.17   2086.10   2079.89   1871.67
   2880.60   2266.07   2185.86   2118.09   2253.43   2253.60   2146.17   2086.08   2079.89   1871.67
   2883.65   2266.11   2185.92   2118.09   2253.43   2253.63   2146.17   2086.05   2079.89   1871.67
   2886.60   2266.12   2185.90   2118.09   2253.43   2253.66   2146.17   2086.02   2079.88   1871.57
   2888.07   2266.10   2185.89   2118.09   2253.43   2253.69   2146.17   2086.00   2079.88   1871.29
   2887.81   2266.07   2185.87   2118.09   2253.44   2253.72   2146.17   2085.97   2079.88   1871.01
   2888.12   2266.08   2185.92   2118.09   2253.48   2253.75   2146.17   2085.95   2079.87   1871.67
   2889.41   2266.10   2185.97   2118.09   2253.55   2253.78   2146.17   2085.92   2079.87   1871.67
   2892.00   2266.13   2186.03   2118.09   2253.61   2253.81   2146.17   2085.90   2079.86   1871.67
   2894.87   2266.14   2186.08   2118.09   2253.65   2254.05   2146.17   2085.87   2079.86   1871.67
   2898.00   2266.15   2186.13   2118.09   2253.67   2254.16   2146.17   2085.84   2079.86   1871.67
   2900.70   2266.16   2186.18   2118.09   2253.67   2254.25   2146.17   2085.82   2079.85   1871.67
   2901.92   2266.14   2186.19   2118.09   2253.64   2254.33   2146.17   2085.79   2079.85   1871.67
   2901.26   2266.10   2186.20   2118.09   2253.58   2254.41   2146.17   2085.77   2079.84   1871.67
   2900.84   2266.10   2186.25   2118.09   2253.53   2256.07   2146.17   2085.74   2079.84   1871.67
   2900.35   2266.09   2186.25   2118.09   2253.49   2260.97   2146.17   2085.71   2079.83   1871.52
   2898.81   2266.06   2186.24   2118.09   2253.47   2262.92   2146.17   2085.69   2079.83   1871.07
   2896.21   2266.04   2186.22   2118.09   2253.46   2263.70   2146.17   2085.66   2079.83   1870.95
   2893.02   2266.01   2186.19   2118.09   2253.45   2263.97   2146.17   2085.64   2079.82   1870.88
   2889.67   2265.99   2186.24   2118.09   2253.45   2264.02   2146.17   2085.61   2079.82   1871.67
   2886.36   2265.98   2186.29   2118.09   2253.45   2263.97   2146.17   2085.59   2079.81   1871.67
   2883.16   2265.97   2186.28   2118.09   2253.45   2263.87   2146.17   2085.56   2079.81   1871.08
   2880.06   2265.96   2186.26   2118.09   2253.45   2263.75   2146.17   2085.53   2079.80   1870.99
   2877.06   2265.95   2186.24   2118.09   2253.45   2263.63   2146.17   2085.51   2079.80   1870.88
   2874.15   2265.94   2186.28   2118.09   2253.45   2263.50   2146.17   2085.48   2079.79   1871.31
   2871.31   2265.93   2186.32   2118.09   2253.45   2263.38   2146.16   2085.46   2079.79   1871.67
   2868.53   2265.93   2186.37   2118.09   2253.45   2263.25   2146.16   2085.43   2079.78   1871.67
   2865.80   2265.92   2186.41   2118.09   2253.45   2263.14   2146.16   2085.40   2079.78   1871.67
   2863.13   2265.91   2186.46   2118.09   2253.45   2263.03   2146.16   2085.38   2079.78   1871.67
   2860.50   2265.91   2186.50   2118.09   2253.45   2262.93   2146.16   2085.35   2079.77   1871.67
   2857.91   2265.90   2186.49   2118.09   2253.45   2262.84   2146.16   2085.33   2079.77   1871.08
   2855.36   2265.89   2186.54   2118.09   2253.45   2262.75   2146.16   2085.30   2079.76   1871.67
   2852.84   2265.89   2186.58   2118.09   2253.45   2262.67   2146.16   2085.28   2079.76   1871.67
   2850.35   2265.88   2186.62   2118.09   2253.45   2262.60   2146.16   2085.25   2079.76   1871.67
   2847.90   2265.87   2186.66   2118.09   2253.45   2262.54   2146.16   2085.22   2079.75   1871.49
   2845.47   2265.87   2186.70   2118.09   2253.45   2262.48   2146.16   2085.20   2079.75   1871.39
   2843.07   2265.86   2186.66   2118.09   2253.45   2262.43   2146.16   2085.17   2079.75   1871.11
   2840.68   2265.85   2186.61   2118.09   2253.45   2262.39   2146.15   2085.15   2079.74   1871.11
   2838.32   2265.85   2186.56   2118.09   2253.45   2265.82   2146.15   2085.12   2079.74   1871.08
   2835.98   2265.84   2186.51   2118.09   2253.45   2265.29   2146.15   2085.10   2079.74   1870.90
   2833.65   2265.84   2186.45   2118.09   2253.45   2264.91   2146.15   2085.07   2079.73   1870.75
   2831.34   2265.83   2186.42   2118.09   2253.45   2264.62   2146.15   2085.04   2079.73   1870.99
   2829.05   2265.83   2186.39   2118.09   2253.45   2264.44   2146.15   2085.02   2079.72   1871.03
   2826.78   2265.82   2186.35   2118.09   2253.45   2264.98   2146.15   2084.99   2079.72   1871.47
   2824.58   2265.82   2186.32   2118.09   2253.45   2264.99   2146.15   2084.97   2079.72   1871.52
   2822.50   2265.81   2186.29   2118.09   2253.45   2264.99   2146.15   2084.94   2079.71   1871.03
   2820.52   2265.81   2186.23   2118.09   2253.45   2265.01   2146.15   2084.92   2079.71   1870.79
   2818.62   2265.80   2186.17   2118.09   2253.45   2265.07   2146.14   2084.89   2079.71   1870.80
   2816.79   2265.80   2186.14   2118.09   2253.45   2265.14   2146.14   2084.87   2079.70   1871.02
   2815.01   2265.79   2186.11   2118.09   2253.45   2265.22   2146.14   2084.84   2079.70   1871.10
   2813.27   2265.79   2186.07   2118.09   2253.45   2265.31   2146.14   2084.81   2079.70   1871.25
   2811.56   2265.78   2186.04   2118.09   2253.45   2265.39   2146.14   2084.79   2079.70   1871.22
   2809.88   2265.78   2186.01   2118.09   2253.45   2265.47   2146.14   2084.76   2079.70   1871.07
   2808.22   2265.77   2185.98   2118.09   2253.45   2265.55   2146.14   2084.74   2079.70   1871.67
   2806.58   2265.77   2185.96   2118.09   2253.45   2265.64   2146.14   2084.71   2079.71   1871.15
   2804.96   2265.76   2185.93   2118.09   2253.45   2265.74   2146.14   2084.69   2079.71   1871.06
   2803.36   2265.76   2185.90   2118.09   2253.45   2265.85   2146.13   2084.66   2079.71   1871.04
   2801.77   2265.75   2185.87   2118.09   2253.45   2265.97   2146.13   2084.64   2079.71   1871.12
   2800.20   2265.75   2185.84   2118.09   2253.45   2266.09   2146.13   2084.61   2079.71   1871.67
   2798.63   2265.75   2185.81   2118.09   2253.45   2266.21   2146.13   2084.59   2079.71   1871.61
   2797.08   2265.74   2185.79   2118.09   2253.45   2266.33   2146.13   2084.56   2079.71   1871.03
   2795.53   2265.74   2185.76   2118.09   2253.45   2266.45   2146.13   2084.54   2079.71   1871.15
   2794.00   2265.73   2185.73   2118.09   2253.45   2266.58   2146.13   2084.51   2079.71   1871.61
   2792.47   2265.73   2185.71   2118.09   2253.45   2266.71   2146.13   2084.49   2079.71   1871.04
   2790.95   2265.72   2185.68   2118.09   2253.45   2266.83   2146.12   2084.46   2079.71   1871.58
   2789.44   2265.72   2185.66   2118.09   2253.45   2266.96   2146.12   2084.44   2079.71   1871.60
   2787.94   2265.72   2185.66   2118.09   2253.45   2267.08   2146.12   2084.41   2079.71   1871.26
   2786.44   2265.71   2185.65   2118.09   2253.45   2267.20   2146.12   2084.39   2079.71   1871.12
   2784.95   2265.71   2185.63   2118.09   2253.45   2267.32   2146.12   2084.36   2079.70   1871.07
   2783.47   2265.70   2185.61   2118.09   2253.45   2267.43   2146.12   2084.34   2079.70   1871.05
   2782.01   2265.70   2185.59   2118.09   2253.45   2267.54   2146.12   2084.31   2079.70   1871.05
   2780.58   2265.70   2185.58   2118.09   2253.45   2267.64   2146.11   2084.29   2079.70   1871.06
   2779.21   2265.70   2185.56   2118.09   2253.45   2267.74   2146.11   2084.26   2079.69   1871.05
   2777.88   2265.69   2185.54   2118.09   2253.45   2267.83   2146.11   2084.24   2079.69   1871.64
   2776.59   2265.69   2185.54   2118.09   2253.45   2267.92   2146.11   2084.21   2079.69   1871.61
   2775.34   2265.69   2185.52   2118.09   2253.45   2268.01   2146.11   2084.19   2079.69   1871.07
   2774.12   2265.69   2185.53   2118.09   2253.45   2268.09   2146.11   2084.16   2079.68   1871.15
   2772.92   2265.69   2185.51   2118.09   2253.45   2268.17   2146.11   2084.14   2079.68   1871.06
   2771.76   2265.69   2185.49   2118.09   2253.45   2268.24   2146.10   2084.11   2079.68   1871.58
   2770.61   2265.69   2185.55   2118.09   2253.45   2268.31   2146.10   2084.09   2079.67   1871.33
   2769.49   2265.69   2185.57   2118.09   2253.45   2268.38   2146.10   2084.07   2079.67   1871.27
   2768.38   2265.68   2185.56   2118.09   2253.45   2268.44   2146.10   2084.04   2079.67   1871.55
   2767.29   2265.68   2185.54   2118.09   2253.45   2268.51   2146.10   2084.02   2079.66   1871.67
   2766.22   2265.68   2185.54   2118.09   2253.45   2268.56   2146.10   2083.99   2079.66   1871.06
   2765.15   2265.68   2185.52   2118.09   2253.45   2268.62   2146.10   2083.97   2079.65   1871.15
   2764.11   2265.68   2185.50   2118.09   2253.45   2268.68   2146.09   2083.94   2079.65   1871.12
   2763.07   2265.68   2185.48   2118.09   2253.45   2268.73   2146.09   2083.92   2079.65   1871.06
   2762.05   2265.68   2185.46   2118.09   2253.45   2268.78   2146.09   2083.89   2079.64   1871.10
   2761.04   2265.68   2185.44   2118.09   2253.45   2268.83   2146.09   2083.87   2079.64   1871.09
   2760.04   2265.68   2185.42   2118.09   2253.45   2268.87   2146.09   2083.85   2079.63   1871.17
   2759.05   2265.68   2185.41   2118.09   2253.45   2268.92   2146.09   2083.82   2079.63   1871.67
   2758.06   2265.68   2185.41   2118.09   2253.45   2268.96   2146.08   2083.80   2079.62   1871.67
   2757.09   2265.68   2185.40   2118.33   2253.45   2269.00   2146.08   2083.77   2079.62   1871.58
   2756.13   2265.68   2185.38   2118.09   2253.45   2269.04   2146.08   2083.75   2079.61   1871.26
   2755.18   2265.68   2185.36   2118.09   2253.45   2269.07   2146.08   2083.73   2079.61   1871.12
   2754.23   2265.68   2185.34   2118.09   2253.45   2269.11   2146.08   2083.70   2079.60   1871.67
   2753.30   2265.68   2185.32   2118.09   2253.45   2269.14   2146.08   2083.68   2079.60   1871.35
   2752.37   2265.67   2185.31   2118.09   2253.45   2269.18   2146.08   2083.65   2079.59   1871.67
   2751.45   2265.67   2185.28   2118.09   2253.45   2269.21   2146.07   2083.63   2079.59   1871.14
   2750.53   2265.67   2185.25   2118.09   2253.45   2269.24   2146.07   2083.61   2079.58   1871.42
   2749.63   2265.67   2185.24   2118.09   2253.45   2269.27   2146.07   2083.58   2079.58   1871.36
   2748.73   2265.67   2185.22   2118.09   2253.45   2269.30   2146.07   2083.56   2079.57   1871.24
   2747.84   2265.67   2185.19   2118.09   2253.45   2269.33   2146.07   2083.54   2079.57   1871.22
   2746.95   2265.67   2185.16   2118.09   2253.45   2269.36   2146.07   2083.51   2079.56   1871.16
   2746.07   2265.67   2185.13   2118.09   2253.45   2269.38   2146.06   2083.49   2079.55   1871.23
   2745.20   2265.67   2185.12   2118.09   2253.45   2269.41   2146.06   2083.46   2079.55   1871.24
   2744.33   2265.67   2185.10   2118.09   2253.45   2269.43   2146.06   2083.44   2079.54   1871.67
   2743.47   2265.67   2185.07   2118.09   2253.45   2269.46   2146.06   2083.42   2079.54   1871.18
   2742.62   2265.67   2185.05   2118.09   2253.45   2269.48   2146.06   2083.39   2079.53   1871.67
   2742.14   2265.68   2185.03   2118.09   2253.45   2269.69   2146.06   2083.37   2079.53   1871.56
   2741.91   2265.68   2185.10   2118.17   2253.45   2270.26   2146.05   2083.35   2079.52   1871.67
   2741.98   2265.69   2185.16   2118.09   2253.45   2270.94   2146.05   2083.32   2079.51   1871.67
   2741.74   2265.68   2185.22   2118.09   2253.45   2271.39   2146.05   2083.30   2079.51   1871.67
   2741.34   2265.68   2185.26   2118.09   2253.45   2271.56   2146.05   2083.28   2079.50   1871.59
   2741.92   2265.70   2185.32   2118.09   2253.45   2271.68   2146.05   2083.25   2079.50   1871.67
   2742.73   2265.70   2185.35   2118.09   2253.45   2272.18   2146.05   2083.23   2079.49   1871.67
   2742.79   2265.69   2185.35   2118.09   2253.45   2272.70   2146.04   2083.21   2079.48   1871.30
   2742.09   2265.68   2185.33   2118.12   2253.45   2272.96   2146.04   2083.18   2079.48   1871.27
   2740.98   2265.67   2185.30   2118.09   2253.45   2272.97   2146.04   2083.16   2079.47   1871.36
   2739.78   2265.67   2185.27   2118.10   2253.45   2272.85   2146.04   2083.14   2079.47   1871.25
   2738.59   2265.67   2185.27   2118.10   2253.45   2272.69   2146.04   2083.11   2079.46   1871.67
   2737.45   2265.67   2185.27   2118.09   2253.45   2272.53   2146.04   2083.09   2079.45   1871.67
   2736.36   2265.67   2185.24   2118.09   2253.45   2272.38   2146.03   2083.07   2079.45   1871.48
   2735.95   2265.67   2185.28   2118.09   2253.45   2272.24   2146.03   2083.05   2079.44   1871.48
   2735.73   2265.68   2185.25   2118.09   2253.45   2272.12   2146.03   2083.02   2079.43   1871.67
   2735.36   2265.68   2185.28   2118.09   2253.45   2272.01   2146.03   2083.00   2079.43   1871.67
   2734.86   2265.67   2185.30   2118.09   2253.45   2271.91   2146.03   2082.98   2079.42   1871.67
   2734.16   2265.67   2185.29   2118.09   2253.45   2271.81   2146.03   2082.95   2079.41   1871.48
   2733.24   2265.67   2185.25   2118.09   2253.45   2271.73   2146.03   2082.93   2079.41   1871.25
   2732.22   2265.66   2185.22   2118.09   2253.45   2271.65   2146.02   2082.91   2079.40   1871.36
   2731.18   2265.66   2185.17   2118.09   2253.45   2271.58   2146.02   2082.89   2079.39   1871.18
   2730.17   2265.66   2185.14   2118.09   2253.45   2271.52   2146.02   2082.86   2079.39   1871.65
   2729.19   2265.66   2185.12   2118.09   2253.45   2271.46   2146.02   2082.84   2079.38   1871.67
   2728.23   2265.66   2185.12   2118.09   2253.45   2271.41   2146.02   2082.82   2079.37   1871.41
   2727.31   2265.66   2185.08   2118.09   2253.45   2271.36   2146.01   2082.79   2079.36   1871.23
   2726.41   2265.66   2185.08   2118.09   2253.45   2271.31   2146.01   2082.77   2079.36   1871.25
   2725.52   2265.65   2185.03   2118.09   2253.45   2271.27   2146.01   2082.75   2079.35   1871.11
   2724.66   2265.65   2185.00   2118.09   2253.45   2271.23   2146.01   2082.73   2079.34   1871.10
   2723.81   2265.65   2184.96   2118.09   2253.45   2271.20   2146.01   2082.70   2079.34   1871.03
   2722.98   2265.65   2184.93   2118.09   2253.45   2271.16   2146.01   2082.68   2079.33   1871.04
   2722.16   2265.65   2184.90   2118.09   2253.45   2271.13   2146.00   2082.66   2079.32   1871.07
   2721.35   2265.65   2184.87   2118.09   2253.45   2271.10   2146.00   2082.64   2079.32   1871.04
   2720.55   2265.65   2184.84   2118.09   2253.45   2271.08   2146.00   2082.62   2079.31   1871.04
   2719.76   2265.65   2184.81   2118.09   2253.45   2271.05   2146.00   2082.59   2079.30   1871.03
   2718.98   2265.65   2184.78   2118.09   2253.45   2271.03   2146.00   2082.57   2079.30   1871.56
   2718.21   2265.65   2184.75   2118.09   2253.45   2271.01   2146.00   2082.55   2079.29   1871.09
   2717.44   2265.65   2184.79   2118.09   2253.45   2270.99   2145.99   2082.53   2079.28   1871.51
   2716.69   2265.65   2184.76   2118.09   2253.45   2270.97   2145.99   2082.51   2079.28   1871.40
   2715.94   2265.65   2184.77   2118.09   2253.45   2270.95   2145.99   2082.48   2079.27   1871.22
   2715.19   2265.64   2184.75   2118.09   2253.45   2270.94   2145.99   2082.46   2079.26   1871.22
   2714.46   2265.64   2184.72   2118.09   2253.45   2270.92   2145.99   2082.44   2079.26   1871.02
   2713.73   2265.64   2184.69   2118.09   2253.45   2270.91   2145.99   2082.42   2079.25   1870.67
   2713.00   2265.64   2184.67   2118.09   2253.45   2270.90   2145.98   2082.40   2079.24   1870.56
   2712.28   2265.64   2184.62   2118.09   2253.45   2270.88   2145.98   2082.38   2079.24   1870.65
   2711.56   2265.64   2184.59   2118.09   2253.45   2270.87   2145.98   2082.36   2079.23   1871.02
   2710.85   2265.64   2184.57   2118.09   2253.45   2270.86   2145.98   2082.34   2079.22   1871.20
   2710.14   2265.64   2184.55   2118.09   2253.45   2270.85   2145.98   2082.31   2079.22   1871.08
   2709.44   2265.64   2184.53   2118.09   2253.45   2270.84   2145.97   2082.29   2079.21   1870.85
   2708.72   2265.64   2184.49   2118.09   2253.45   2270.83   2145.97   2082.27   2079.21   1870.79
   2708.19   2265.64   2184.46   2118.09   2253.45   2270.83   2145.97   2082.25   2079.20   1870.70
   2707.77   2265.64   2184.43   2118.09   2253.45   2270.82   2145.97   2082.23   2079.19   1870.73
   2707.40   2265.63   2184.40   2118.09   2253.45   2270.81   2145.97   2082.21   2079.19   1871.10
   2707.07   2265.63   2184.38   2118.09   2253.45   2270.80   2145.97   2082.19   2079.18   1871.22
   2706.84   2265.63   2184.33   2118.09   2253.45   2270.80   2145.96   2082.17   2079.17   1870.65
   2706.61   2265.63   2184.31   2118.09   2253.45   2270.79   2145.96   2082.15   2079.17   1870.68
   2706.34   2265.63   2184.28   2118.09   2253.45   2270.79   2145.96   2082.13   2079.16   1871.11
   2706.07   2265.63   2184.25   2118.09   2253.45   2270.78   2145.96   2082.11   2079.15   1870.56
   2705.80   2265.63   2184.22   2118.09   2253.45   2270.77   2145.96   2082.09   2079.15   1870.65
   2705.54   2265.63   2184.19   2118.09   2253.45   2270.95   2145.96   2082.07   2079.14   1871.00
   2705.29   2265.63   2184.17   2118.09   2253.45   2271.69   2145.95   2082.05   2079.13   1871.67
   2705.05   2265.63   2184.14   2118.09   2253.45   2272.61   2145.95   2082.03   2079.12   1870.70
   2704.81   2265.63   2184.12   2118.09   2253.45   2273.23   2145.95   2082.01   2079.12   1870.58
   2704.58   2265.62   2184.09   2118.09   2253.45   2273.45   2145.95   2081.99   2079.11   1870.63
   2704.35   2265.62   2184.07   2118.09   2253.45   2273.43   2145.95   2081.97   2079.10   1870.61
   2704.12   2265.62   2184.04   2118.09   2253.45   2273.30   2145.95   2081.95   2079.10   1870.71
   2703.90   2265.62   2184.03   2118.09   2253.45   2273.14   2145.95   2081.93   2079.09   1871.22
   2703.68   2265.62   2184.02   2118.09   2253.45   2272.98   2145.94   2081.91   2079.08   1871.04
   2703.46   2265.62   2184.00   2118.09   2253.45   2272.83   2145.94   2081.89   2079.08   1871.21
   2703.24   2265.62   2183.98   2118.09   2253.45   2272.79   2145.94   2081.87   2079.07   1871.39
   2703.03   2265.62   2183.96   2118.09   2253.45   2273.27   2145.94   2081.85   2079.06   1871.34