 Head values for selected MODFLOW cells
   2267.00   2220.75   2187.69   2177.49   2188.24   2169.18   2114.27   2237.42   2107.68   2089.90   2101.50   2084.55   2013.05   1993.35   2002.90   1959.31   1939.05   1946.64   1930.80   1913.66   1908.42   1865.88   1875.89
   2267.00   2220.75   2187.69   2177.49   2188.24   2169.19   2114.27   2237.42   2107.68   2089.90   2101.50   2084.55   2013.04   1993.35   2002.90   1959.31   1939.05   1946.64   1930.80   1913.66   1908.43   1867.41   1878.00
   2267.00   2220.75   2187.69   2177.50   2188.25   2169.20   2114.27   2237.41   2107.68   2089.90   2101.50   2084.55   2013.04   1993.35   2002.90   1959.31   1939.05   1946.64   1930.81   1913.66   1908.43   1868.35   1878.69
   2267.01   2220.75   2187.69   2177.50   2188.25   2169.20   2114.27   2237.41   2107.68   2089.90   2101.50   2084.55   2013.03   1993.35   2002.90   1959.31   1939.05   1946.64   1930.81   1913.66   1908.43   1868.94   1878.92
   2267.01   2220.75   2187.69   2177.50   2188.25   2169.21   2114.27   2237.41   2107.68   2089.90   2101.50   2084.55   2013.03   1993.35   2002.90   1959.31   1939.05   1946.64   1930.81   1913.66   1908.43   1869.30   1879.00
   2267.01   2220.75   2187.69   2177.51   2188.26   2169.21   2114.27   2237.40   2107.68   2089.90   2101.50   2084.55   2013.02   1993.36   2002.89   1959.31   1939.05   1946.64   1930.81   1913.66   1908.44   1869.53   1879.02
   2267.01   2220.75   2187.69   2177.51   2188.26   2169.22   2114.27   2237.40   2107.68   2089.90   2101.50   2084.55   2013.02   1993.36   2002.89   1959.31   1939.05   1946.64   1930.81   1913.67   1908.44   1869.67   1879.03
   2267.01   2220.75   2187.69   2177.51   2188.26   2169.22   2114.28   2237.40   2107.68   2089.90   2101.50   2084.55   2013.02   1993.36   2002.89   1959.31   1939.05   1946.64   1930.81   1913.67   1908.44   1869.75   1879.03
   2267.01   2220.75   2187.69   2177.52   2188.27   2169.23   2114.28   2237.39   2107.68   2089.90   2101.50   2084.55   2013.01   1993.36   2002.89   1959.31   1939.05   1946.64   1930.81   1913.67   1908.45   1869.81   1879.04
   2267.01   2220.75   2187.69   2177.52   2188.27   2169.24   2114.28   2237.39   2107.68   2089.90   2101.50   2084.54   2013.01   1993.36   2002.88   1959.31   1939.05   1946.64   1930.81   1913.67   1908.45   1869.84   1879.04
   2267.01   2220.75   2187.69   2177.52   2188.27   2169.24   2114.28   2237.38   2107.68   2089.90   2101.50   2084.54   2013.00   1993.37   2002.88   1959.31   1939.05   1946.64   1930.81   1913.67   1908.45   1869.86   1879.04
   2267.01   2220.75   2187.69   2177.52   2188.28   2169.25   2114.28   2237.38   2107.68   2089.90   2101.50   2084.54   2013.00   1993.37   2002.88   1959.31   1939.05   1946.64   1930.81   1913.67   1908.45   1869.87   1879.04
   2267.02   2220.75   2187.69   2177.53   2188.28   2169.25   2114.28   2237.38   2107.68   2089.90   2101.50   2084.54   2012.99   1993.37   2002.88   1959.31   1939.05   1946.64   1930.81   1913.67   1908.46   1869.88   1879.04
   2267.02   2220.75   2187.69   2177.53   2188.28   2169.26   2114.28   2237.37   2107.68   2089.90   2101.50   2084.54   2012.99   1993.37   2002.87   1959.31   1939.05   1946.64   1930.81   1913.67   1908.46   1869.88   1879.04
   2267.02   2220.75   2187.69   2177.53   2188.28   2169.27   2114.28   2237.37   2107.68   2089.90   2101.50   2084.54   2012.98   1993.38   2002.87   1959.31   1939.05   1946.64   1930.81   1913.67   1908.46   1869.89   1879.04
   2267.02   2220.75   2187.69   2177.54   2188.29   2169.27   2114.28   2237.36   2107.68   2089.90   2101.50   2084.54   2012.98   1993.38   2002.87   1959.31   1939.05   1946.64   1930.81   1913.67   1908.46   1869.89   1879.04
   2267.02   2220.75   2187.69   2177.54   2188.29   2169.28   2114.28   2237.36   2107.68   2089.90   2101.50   2084.54   2012.97   1993.38   2002.87   1959.31   1939.05   1946.64   1930.81   1913.67   1908.47   1869.89   1879.04
   2267.02   2220.75   2187.69   2177.54   2188.29   2169.28   2114.29   2237.36   2107.68   2089.90   2101.50   2084.53   2012.97   1993.38   2002.87   1959.31   1939.05   1946.64   1930.81   1913.67   1908.47   1869.89   1879.04
   2267.02   2220.75   2187.69   2177.55   2188.30   2169.29   2114.29   2237.35   2107.68   2089.90   2101.50   2084.53   2012.96   1993.38   2002.86   1959.31   1939.05   1946.64   1930.81   1913.68   1908.47   1869.89   1879.04
   2267.02   2220.75   2187.69   2177.55   2188.30   2169.29   2114.29   2237.35   2107.68   2089.90   2101.50   2084.53   2012.96   1993.39   2002.86   1959.31   1939.05   1946.64   1930.81   1913.68   1908.48   1869.89   1879.04
   2267.02   2220.75   2187.69   2177.55   2188.30   2169.30   2114.29   2237.34   2107.68   2089.90   2101.50   2084.53   2012.95   1993.39   2002.86   1959.31   1939.05   1946.64   1930.81   1913.68   1908.48   1869.89   1879.04
   2267.02   2220.75   2187.69   2177.56   2188.31   2169.31   2114.29   2237.34   2107.68   2089.90   2101.50   2084.53   2012.95   1993.39   2002.86   1959.31   1939.05   1946.64   1930.81   1913.68   1908.48   1869.89   1879.04
   2267.03   2220.75   2187.69   2177.56   2188.31   2169.31   2114.29   2237.34   2107.68   2089.90   2101.50   2084.53   2012.94   1993.39   2002.85   1959.31   1939.05   1946.64   1930.81   1913.68   1908.48   1869.89   1879.04
   2267.03   2220.75   2187.69   2177.56   2188.31   2169.32   2114.29   2237.33   2107.68   2089.90   2101.50   2084.53   2012.94   1993.39   2002.85   1959.31   1939.05   1946.64   1930.81   1913.68   1908.49   1869.89   1879.04
   2267.03   2220.75   2187.69   2177.57   2188.32   2169.32   2114.29   2237.33   2107.68   2089.90   2101.50   2084.53   2012.93   1993.40   2002.85   1959.31   1939.05   1946.64   1930.81   1913.68   1908.49   1869.89   1879.04
   2267.03   2220.75   2187.69   2177.57   2188.32   2169.33   2114.29   2237.32   2107.68   2089.90   2101.50   2084.53   2012.93   1993.40   2002.85   1959.31   1939.05   1946.64   1930.81   1913.68   1908.49   1869.89   1879.04
   2267.03   2220.75   2187.69   2177.57   2188.32   2169.33   2114.29   2237.32   2107.68   2089.90   2101.50   2084.52   2012.92   1993.40   2002.84   1959.31   1939.05   1946.64   1930.81   1913.68   1908.49   1869.89   1879.04
   2267.03   2220.75   2187.69   2177.58   2188.33   2169.34   2114.30   2237.32   2107.68   2089.90   2101.50   2084.52   2012.92   1993.40   2002.84   1959.31   1939.05   1946.64   1930.81   1913.68   1908.50   1869.89   1879.04
   2267.03   2220.75   2187.69   2177.58   2188.33   2169.35   2114.30   2237.31   2107.68   2089.90   2101.50   2084.52   2012.91   1993.40   2002.84   1959.31   1939.05   1946.64   1930.81   1913.68   1908.50   1869.89   1879.04
   2267.03   2220.75   2187.69   2177.58   2188.33   2169.35   2114.30   2237.31   2107.68   2089.90   2101.50   2084.52   2012.91   1993.41   2002.84   1959.31   1939.05   1946.64   1930.81   1913.68   1908.50   1869.89   1879.04
   2267.03   2220.75   2187.69   2177.59   2188.33   2169.36   2114.30   2237.31   2107.68   2089.90   2101.50   2084.52   2012.90   1993.41   2002.84   1959.31   1939.05   1946.64   1930.82   1913.69   1908.50   1869.89   1879.04
   2267.03   2220.75   2187.69   2177.59   2188.34   2169.36   2114.30   2237.30   2107.68   2089.90   2101.50   2084.52   2012.90   1993.41   2002.83   1959.31   1939.05   1946.64   1930.82   1913.69   1908.51   1869.89   1879.04
   2267.04   2220.75   2187.69   2177.59   2188.34   2169.37   2114.30   2237.30   2107.68   2089.90   2101.50   2084.52   2012.90   1993.41   2002.83   1959.31   1939.05   1946.64   1930.82   1913.69   1908.51   1869.89   1879.04
   2267.04   2220.75   2187.69   2177.60   2188.34   2169.38   2114.30   2237.29   2107.68   2089.90   2101.50   2084.52   2012.89   1993.41   2002.83   1959.31   1939.05   1946.64   1930.82   1913.69   1908.51   1869.89   1879.04
   2267.04   2220.75   2187.69   2177.60   2188.35   2169.38   2114.30   2237.29   2107.68   2089.90   2101.50   2084.51   2012.89   1993.42   2002.83   1959.31   1939.06   1946.64   1930.82   1913.69   1908.52   1869.89   1879.04
   2267.04   2220.75   2187.69   2177.60   2188.35   2169.39   2114.30   2237.29   2107.68   2089.90   2101.50   2084.51   2012.88   1993.42   2002.82   1959.31   1939.06   1946.64   1930.82   1913.69   1908.52   1869.89   1879.04
   2267.04   2220.75   2187.69   2177.61   2188.35   2169.39   2114.30   2237.28   2107.68   2089.90   2101.50   2084.51   2012.88   1993.42   2002.82   1959.31   1939.06   1946.64   1930.82   1913.69   1908.52   1869.89   1879.04
   2267.04   2220.75   2187.69   2177.61   2188.36   2169.40   2114.31   2237.28   2107.68   2089.90   2101.50   2084.51   2012.87   1993.42   2002.82   1959.31   1939.06   1946.64   1930.82   1913.69   1908.52   1869.89   1879.04
   2267.04   2220.75   2187.69   2177.61   2188.36   2169.40   2114.31   2237.27   2107.68   2089.90   2101.50   2084.51   2012.87   1993.42   2002.82   1959.31   1939.06   1946.64   1930.82   1913.69   1908.53   1869.89   1879.04
   2267.04   2220.75   2187.69   2177.62   2188.36   2169.41   2114.31   2237.27   2107.68   2089.90   2101.50   2084.51   2012.86   1993.42   2002.81   1959.31   1939.06   1946.64   1930.82   1913.69   1908.53   1869.89   1879.04
   2267.04   2220.75   2187.69   2177.62   2188.37   2169.42   2114.31   2237.27   2107.68   2089.90   2101.50   2084.51   2012.86   1993.43   2002.81   1959.31   1939.06   1946.64   1930.82   1913.69   1908.53   1869.89   1879.04
   2267.04   2220.75   2187.69   2177.62   2188.37   2169.42   2114.31   2237.26   2107.68   2089.90   2101.50   2084.51   2012.85   1993.43   2002.81   1959.31   1939.06   1946.64   1930.82   1913.69   1908.53   1869.89   1879.04
   2267.05   2220.75   2187.69   2177.62   2188.37   2169.43   2114.31   2237.26   2107.68   2089.90   2101.50   2084.51   2012.85   1993.43   2002.81   1959.31   1939.06   1946.64   1930.82   1913.70   1908.54   1869.89   1879.04
   2267.05   2220.75   2187.69   2177.63   2188.37   2169.43   2114.31   2237.26   2107.68   2089.90   2101.50   2084.50   2012.84   1993.43   2002.81   1959.31   1939.06   1946.64   1930.82   1913.70   1908.54   1869.89   1879.04
   2267.05   2220.75   2187.70   2177.63   2188.38   2169.44   2114.31   2237.25   2107.68   2089.90   2101.50   2084.50   2012.84   1993.43   2002.80   1959.32   1939.06   1946.65   1930.82   1913.70   1908.54   1869.89   1879.04
   2267.05   2220.74   2187.70   2177.64   2188.38   2169.44   2114.31   2237.25   2107.68   2089.90   2101.50   2084.50   2012.84   1993.44   2002.80   1959.32   1939.06   1946.65   1930.82   1913.70   1908.54   1869.89   1879.04
   2267.05   2220.74   2187.70   2177.64   2188.38   2169.45   2114.32   2237.24   2107.68   2089.90   2101.50   2084.50   2012.83   1993.44   2002.80   1959.32   1939.06   1946.65   1930.82   1913.70   1908.55   1869.89   1879.04
   2267.05   2220.74   2187.70   2177.64   2188.39   2169.46   2114.32   2237.24   2107.68   2089.90   2101.50   2084.50   2012.83   1993.44   2002.80   1959.32   1939.06   1946.65   1930.82   1913.70   1908.55   1869.89   1879.04
   2267.05   2220.74   2187.70   2177.65   2188.39   2169.46   2114.32   2237.24   2107.68   2089.89   2101.50   2084.50   2012.82   1993.44   2002.79   1959.32   1939.06   1946.65   1930.82   1913.70   1908.55   1869.89   1879.04
   2267.05   2220.74   2187.70   2177.65   2188.39   2169.47   2114.32   2237.23   2107.68   2089.89   2101.50   2084.50   2012.82   1993.44   2002.79   1959.32   1939.06   1946.65   1930.82   1913.70   1908.56   1869.89   1879.04
   2267.05   2220.74   2187.70   2177.65   2188.40   2169.47   2114.32   2237.23   2107.68   2089.89   2101.50   2084.50   2012.81   1993.45   2002.79   1959.32   1939.06   1946.65   1930.82   1913.70   1908.56   1869.89   1879.04
   2267.05   2220.74   2187.70   2177.66   2188.40   2169.48   2114.32   2237.22   2107.68   2089.89   2101.50   2084.50   2012.81   1993.45   2002.79   1959.32   1939.06   1946.65   1930.82   1913.70   1908.56   1869.89   1879.04
   2267.06   2220.74   2187.70   2177.66   2188.40   2169.48   2114.32   2237.22   2107.68   2089.89   2101.50   2084.49   2012.80   1993.45   2002.79   1959.32   1939.06   1946.65   1930.82   1913.70   1908.56   1869.89   1879.04
   2267.06   2220.74   2187.70   2177.66   2188.40   2169.49   2114.32   2237.22   2107.68   2089.89   2101.50   2084.49   2012.80   1993.45   2002.78   1959.32   1939.06   1946.65   1930.82   1913.70   1908.57   1869.89   1879.04
   2267.06   2220.74   2187.70   2177.66   2188.41   2169.49   2114.32   2237.21   2107.68   2089.89   2101.50   2084.49   2012.80   1993.45   2002.78   1959.32   1939.06   1946.65   1930.82   1913.71   1908.57   1869.89   1879.04
   2267.06   2220.74   2187.70   2177.67   2188.41   2169.50   2114.32   2237.21   2107.68   2089.89   2101.50   2084.49   2012.79   1993.46   2002.78   1959.32   1939.06   1946.65   1930.82   1913.71   1908.57   1869.89   1879.04
   2267.06   2220.74   2187.70   2177.67   2188.41   2169.51   2114.33   2237.20   2107.68   2089.89   2101.50   2084.49   2012.79   1993.46   2002.78   1959.32   1939.06   1946.65   1930.82   1913.71   1908.57   1869.89   1879.04
   2267.06   2220.74   2187.70   2177.67   2188.42   2169.51   2114.33   2237.20   2107.68   2089.89   2101.50   2084.49   2012.78   1993.46   2002.77   1959.32   1939.06   1946.65   1930.82   1913.71   1908.58   1869.89   1879.04
   2267.06   2220.74   2187.70   2177.68   2188.42   2169.52   2114.33   2237.20   2107.68   2089.89   2101.50   2084.49   2012.78   1993.46   2002.77   1959.32   1939.06   1946.65   1930.83   1913.71   1908.58   1869.89   1879.04
   2267.06   2220.74   2187.70   2177.68   2188.42   2169.52   2114.33   2237.19   2107.68   2089.89   2101.50   2084.49   2012.77   1993.46   2002.77   1959.32   1939.06   1946.65   1930.83   1913.71   1908.58   1869.89   1879.04
   2267.06   2220.74   2187.70   2177.69   2188.42   2169.53   2114.33   2237.19   2107.68   2089.89   2101.50   2084.48   2012.77   1993.47   2002.77   1959.32   1939.06   1946.65   1930.83   1913.71   1908.58   1869.89   1879.04
   2267.06   2220.74   2187.70   2177.69   2188.43   2169.53   2114.33   2237.19   2107.68   2089.89   2101.50   2084.48   2012.77   1993.47   2002.77   1959.32   1939.06   1946.65   1930.83   1913.71   1908.59   1869.89   1879.04
   2267.07   2220.74   2187.70   2177.69   2188.43   2169.54   2114.33   2237.18   2107.68   2089.89   2101.50   2084.48   2012.76   1993.47   2002.76   1959.32   1939.06   1946.65   1930.83   1913.71   1908.59   1869.89   1879.04
   2267.07   2220.74   2187.70   2177.70   2188.43   2169.55   2114.33   2237.18   2107.68   2089.89   2101.50   2084.48   2012.76   1993.47   2002.76   1959.32   1939.06   1946.65   1930.83   1913.71   1908.59   1869.89   1879.04
   2267.07   2220.74   2187.70   2177.70   2188.44   2169.55   2114.33   2237.17   2107.68   2089.89   2101.50   2084.48   2012.75   1993.47   2002.76   1959.32   1939.06   1946.65   1930.83   1913.71   1908.59   1869.89   1879.04
   2267.07   2220.74   2187.70   2177.70   2188.44   2169.56   2114.33   2237.17   2107.68   2089.89   2101.50   2084.48   2012.75   1993.48   2002.76   1959.32   1939.06   1946.65   1930.83   1913.71   1908.60   1869.89   1879.04
   2267.07   2220.74   2187.70   2177.71   2188.44   2169.56   2114.34   2237.17   2107.68   2089.89   2101.50   2084.48   2012.74   1993.48   2002.75   1959.32   1939.06   1946.65   1930.83   1913.72   1908.60   1869.90   1879.04
   2267.07   2220.74   2187.70   2177.71   2188.45   2169.57   2114.34   2237.16   2107.68   2089.89   2101.50   2084.48   2012.74   1993.48   2002.75   1959.32   1939.06   1946.65   1930.83   1913.72   1908.60   1869.90   1879.04
   2267.07   2220.74   2187.70   2177.71   2188.45   2169.57   2114.34   2237.16   2107.68   2089.89   2101.50   2084.48   2012.74   1993.48   2002.75   1959.32   1939.06   1946.65   1930.83   1913.72   1908.61   1869.90   1879.04
   2267.07   2220.74   2187.70   2177.72   2188.45   2169.58   2114.34   2237.15   2107.68   2089.89   2101.50   2084.47   2012.73   1993.48   2002.75   1959.32   1939.06   1946.65   1930.83   1913.72   1908.61   1869.90   1879.04
   2267.07   2220.74   2187.70   2177.72   2188.45   2169.58   2114.34   2237.15   2107.68   2089.89   2101.50   2084.47   2012.73   1993.49   2002.74   1959.32   1939.06   1946.65   1930.83   1913.72   1908.61   1869.90   1879.04
   2267.07   2220.74   2187.70   2177.72   2188.46   2169.59   2114.34   2237.15   2107.68   2089.89   2101.50   2084.47   2012.72   1993.49   2002.74   1959.32   1939.06   1946.65   1930.83   1913.72   1908.61   1869.90   1879.04
   2267.08   2220.74   2187.70   2177.73   2188.46   2169.60   2114.34   2237.14   2107.68   2089.89   2101.50   2084.47   2012.72   1993.49   2002.74   1959.32   1939.07   1946.65   1930.83   1913.72   1908.62   1869.90   1879.04
   2267.08   2220.74   2187.70   2177.73   2188.46   2169.60   2114.34   2237.14   2107.68   2089.89   2101.50   2084.47   2012.71   1993.49   2002.74   1959.32   1939.07   1946.65   1930.83   1913.72   1908.62   1869.91   1879.04
   2267.08   2220.74   2187.70   2177.73   2188.47   2169.61   2114.34   2237.14   2107.68   2089.89   2101.50   2084.47   2012.71   1993.49   2002.74   1959.32   1939.07   1946.65   1930.83   1913.72   1908.62   1869.91   1879.04
   2267.08   2220.74   2187.70   2177.74   2188.47   2169.61   2114.34   2237.13   2107.68   2089.89   2101.50   2084.47   2012.71   1993.49   2002.73   1959.32   1939.07   1946.65   1930.83   1913.72   1908.62   1869.91   1879.04
   2267.08   2220.74   2187.70   2177.74   2188.47   2169.62   2114.35   2237.13   2107.68   2089.89   2101.50   2084.47   2012.70   1993.50   2002.73   1959.32   1939.07   1946.65   1930.83   1913.72   1908.63   1869.91   1879.04
   2267.08   2220.74   2187.70   2177.74   2188.47   2169.62   2114.35   2237.12   2107.68   2089.89   2101.50   2084.47   2012.70   1993.50   2002.73   1959.32   1939.07   1946.65   1930.83   1913.72   1908.63   1869.91   1879.04
   2267.08   2220.74   2187.70   2177.75   2188.48   2169.63   2114.35   2237.12   2107.68   2089.89   2101.50   2084.46   2012.69   1993.50   2002.73   1959.32   1939.07   1946.65   1930.83   1913.73   1908.63   1869.92   1879.04
   2267.08   2220.74   2187.70   2177.75   2188.48   2169.63   2114.35   2237.12   2107.68   2089.89   2101.50   2084.46   2012.69   1993.50   2002.72   1959.32   1939.07   1946.65   1930.83   1913.73   1908.63   1869.92   1879.04
   2267.08   2220.74   2187.70   2177.75   2188.48   2169.64   2114.35   2237.11   2107.68   2089.89   2101.50   2084.46   2012.68   1993.50   2002.72   1959.32   1939.07   1946.65   1930.83   1913.73   1908.64   1869.92   1879.04
   2267.08   2220.74   2187.70   2177.76   2188.49   2169.65   2114.35   2237.11   2107.68   2089.89   2101.50   2084.46   2012.68   1993.51   2002.72   1959.32   1939.07   1946.65   1930.83   1913.73   1908.64   1869.92   1879.04
   2267.08   2220.74   2187.70   2177.76   2188.49   2169.65   2114.35   2237.10   2107.68   2089.89   2101.50   2084.46   2012.68   1993.51   2002.72   1959.32   1939.07   1946.65   1930.83   1913.73   1908.64   1869.92   1879.04
   2267.09   2220.74   2187.70   2177.76   2188.49   2169.66   2114.35   2237.10   2107.68   2089.89   2101.50   2084.46   2012.67   1993.51   2002.72   1959.32   1939.07   1946.65   1930.83   1913.73   1908.64   1869.92   1879.04
   2267.09   2220.74   2187.70   2177.77   2188.49   2169.66   2114.35   2237.10   2107.68   2089.89   2101.50   2084.46   2012.67   1993.51   2002.71   1959.32   1939.07   1946.65   1930.83   1913.73   1908.65   1869.92   1879.04
   2267.09   2220.74   2187.70   2177.77   2188.50   2169.67   2114.35   2237.09   2107.68   2089.89   2101.50   2084.46   2012.66   1993.51   2002.71   1959.32   1939.07   1946.65   1930.83   1913.73   1908.65   1869.92   1879.04
   2267.09   2220.74   2187.70   2177.77   2188.50   2169.67   2114.36   2237.09   2107.68   2089.89   2101.50   2084.45   2012.66   1993.52   2002.71   1959.32   1939.07   1946.65   1930.84   1913.73   1908.65   1869.92   1879.04
   2267.09   2220.74   2187.70   2177.78   2188.50   2169.68   2114.36   2237.09   2107.68   2089.89   2101.50   2084.45   2012.66   1993.52   2002.71   1959.32   1939.07   1946.65   1930.84   1913.73   1908.66   1869.92   1879.04
   2267.09   2220.74   2187.70   2177.78   2188.50   2169.68   2114.36   2237.08   2107.68   2089.89   2101.50   2084.45   2012.65   1993.52   2002.70   1959.32   1939.07   1946.65   1930.84   1913.73   1908.66   1869.92   1879.04
   2267.09   2220.74   2187.70   2177.78   2188.51   2169.69   2114.36   2237.08   2107.68   2089.89   2101.50   2084.45   2012.65   1993.52   2002.70   1959.32   1939.07   1946.65   1930.84   1913.74   1908.66   1869.92   1879.04
   2267.09   2220.74   2187.70   2177.79   2188.51   2169.70   2114.36   2237.07   2107.68   2089.89   2101.50   2084.45   2012.64   1993.52   2002.70   1959.32   1939.07   1946.65   1930.84   1913.74   1908.66   1869.92   1879.04
   2267.09   2220.74   2187.70   2177.79   2188.51   2169.70   2114.36   2237.07   2107.68   2089.89   2101.50   2084.45   2012.64   1993.53   2002.70   1959.32   1939.07   1946.65   1930.84   1913.74   1908.67   1869.92   1879.04
   2267.09   2220.74   2187.70   2177.79   2188.52   2169.71   2114.36   2237.07   2107.68   2089.89   2101.50   2084.45   2012.64   1993.53   2002.70   1959.32   1939.07   1946.65   1930.84   1913.74   1908.67   1869.92   1879.04
   2267.10   2220.74   2187.70   2177.80   2188.52   2169.71   2114.36   2237.06   2107.68   2089.89   2101.50   2084.45   2012.63   1993.53   2002.69   1959.32   1939.07   1946.65   1930.84   1913.74   1908.67   1869.92   1879.04
   2267.10   2220.74   2187.70   2177.80   2188.52   2169.72   2114.36   2237.06   2107.68   2089.89   2101.50   2084.45   2012.63   1993.53   2002.69   1959.32   1939.07   1946.65   1930.84   1913.74   1908.67   1869.92   1879.04
   2267.10   2220.74   2187.70   2177.81   2188.52   2169.72   2114.37   2237.06   2107.68   2089.89   2101.50   2084.44   2012.62   1993.53   2002.69   1959.32   1939.07   1946.65   1930.84   1913.74   1908.68   1869.92   1879.04
   2267.10   2220.74   2187.70   2177.81   2188.53   2169.73   2114.37   2237.05   2107.68   2089.89   2101.50   2084.44   2012.62   1993.53   2002.69   1959.32   1939.07   1946.65   1930.84   1913.74   1908.68   1869.92   1879.04
   2267.10   2220.74   2187.70   2177.81   2188.53   2169.73   2114.37   2237.05   2107.68   2089.89   2101.50   2084.44   2012.62   1993.54   2002.68   1959.32   1939.07   1946.65   1930.84   1913.74   1908.68   1869.92   1879.04
   2267.10   2220.74   2187.70   2177.82   2188.53   2169.74   2114.37   2237.04   2107.68   2089.89   2101.50   2084.44   2012.61   1993.54   2002.68   1959.32   1939.07   1946.65   1930.84   1913.74   1908.69   1869.92   1879.04
   2267.10   2220.74   2187.70   2177.82   2188.54   2169.74   2114.37   2237.04   2107.68   2089.89   2101.50   2084.44   2012.61   1993.54   2002.68   1959.32   1939.07   1946.65   1930.84   1913.74   1908.69   1869.93   1879.04
   2267.10   2220.74   2187.70   2177.82   2188.54   2169.75   2114.37   2237.04   2107.68   2089.89   2101.50   2084.44   2012.60   1993.54   2002.68   1959.32   1939.07   1946.65   1930.84   1913.74   1908.69   1869.93   1879.04
   2267.10   2220.74   2187.70   2177.83   2188.54   2169.76   2114.37   2237.03   2107.68   2089.89   2101.50   2084.44   2012.60   1993.54   2002.68   1959.32   1939.07   1946.65   1930.84   1913.75   1908.70   1869.93   1879.04
   2267.10   2220.74   2187.70   2177.83   2188.54   2169.76   2114.37   2237.03   2107.68   2089.89   2101.50   2084.44   2012.60   1993.55   2002.67   1959.32   1939.07   1946.65   1930.84   1913.75   1908.70   1869.93   1879.04
   2267.10   2220.74   2187.70   2177.83   2188.55   2169.77   2114.37   2237.02   2107.68   2089.89   2101.50   2084.44   2012.59   1993.55   2002.67   1959.32   1939.07   1946.65   1930.84   1913.75   1908.71   1869.93   1879.04
   2267.11   2220.74   2187.70   2177.84   2188.55   2169.77   2114.37   2237.02   2107.68   2089.89   2101.50   2084.43   2012.59   1993.55   2002.67   1959.32   1939.07   1946.65   1930.84   1913.75   1908.71   1869.93   1879.04
   2267.11   2220.74   2187.70   2177.84   2188.55   2169.78   2114.38   2237.02   2107.68   2089.89   2101.50   2084.43   2012.58   1993.55   2002.67   1959.33   1939.07   1946.65   1930.84   1913.75   1908.71   1869.93   1879.04
   2267.11   2220.74   2187.70   2177.84   2188.55   2169.78   2114.38   2237.01   2107.68   2089.89   2101.50   2084.43   2012.58   1993.55   2002.66   1959.33   1939.07   1946.65   1930.84   1913.75   1908.72   1869.93   1879.04
   2267.11   2220.74   2187.70   2177.85   2188.56   2169.79   2114.38   2237.01   2107.68   2089.89   2101.50   2084.43   2012.58   1993.56   2002.66   1959.33   1939.07   1946.65   1930.84   1913.75   1908.72   1869.93   1879.04
   2267.11   2220.74   2187.70   2177.85   2188.56   2169.79   2114.38   2237.01   2107.68   2089.89   2101.50   2084.43   2012.57   1993.56   2002.66   1959.33   1939.07   1946.65   1930.84   1913.75   1908.72   1869.93   1879.04
   2267.11   2220.74   2187.70   2177.85   2188.56   2169.80   2114.38   2237.00   2107.68   2089.89   2101.50   2084.43   2012.57   1993.56   2002.66   1959.33   1939.08   1946.65   1930.84   1913.75   1908.73   1869.93   1879.04
   2267.11   2220.74   2187.70   2177.86   2188.56   2169.80   2114.38   2237.00   2107.68   2089.89   2101.50   2084.43   2012.57   1993.56   2002.66   1959.33   1939.08   1946.65   1930.84   1913.75   1908.73   1869.93   1879.04
   2267.11   2220.74   2187.70   2177.86   2188.57   2169.81   2114.38   2236.99   2107.68   2089.89   2101.50   2084.43   2012.56   1993.56   2002.65   1959.33   1939.08   1946.65   1930.84   1913.75   1908.73   1869.93   1879.04
   2267.11   2220.74   2187.70   2177.86   2188.57   2169.82   2114.38   2236.99   2107.68   2089.89   2101.50   2084.43   2012.56   1993.56   2002.65   1959.33   1939.08   1946.65   1930.84   1913.75   1908.74   1869.93   1879.04
   2267.11   2220.74   2187.70   2177.87   2188.57   2169.82   2114.38   2236.99   2107.68   2089.89   2101.50   2084.42   2012.55   1993.57   2002.65   1959.33   1939.08   1946.65   1930.84   1913.76   1908.74   1869.93   1879.04
   2267.12   2220.74   2187.71   2177.87   2188.58   2169.83   2114.38   2236.98   2107.68   2089.89   2101.50   2084.42   2012.55   1993.57   2002.65   1959.33   1939.08   1946.65   1930.85   1913.76   1908.74   1869.93   1879.04
   2267.12   2220.74   2187.71   2177.88   2188.58   2169.83   2114.39   2236.98   2107.68   2089.89   2101.50   2084.42   2012.55   1993.57   2002.64   1959.33   1939.08   1946.65   1930.85   1913.76   1908.75   1869.92   1879.04
   2267.12   2220.74   2187.71   2177.88   2188.58   2169.84   2114.39   2236.98   2107.68   2089.89   2101.50   2084.42   2012.54   1993.57   2002.64   1959.33   1939.08   1946.65   1930.85   1913.76   1908.75   1869.92   1879.04
   2267.12   2220.74   2187.71   2177.88   2188.58   2169.84   2114.39   2236.97   2107.68   2089.89   2101.50   2084.42   2012.54   1993.57   2002.64   1959.33   1939.08   1946.65   1930.85   1913.76   1908.76   1869.92   1879.04
   2267.12   2220.74   2187.71   2177.89   2188.59   2169.85   2114.39   2236.97   2107.68   2089.89   2101.50   2084.42   2012.53   1993.58   2002.64   1959.33   1939.08   1946.65   1930.85   1913.76   1908.76   1869.92   1879.04
   2267.12   2220.74   2187.71   2177.89   2188.59   2169.85   2114.39   2236.96   2107.68   2089.89   2101.50   2084.42   2012.53   1993.58   2002.64   1959.33   1939.08   1946.65   1930.85   1913.76   1908.76   1869.92   1879.04
   2267.12   2220.74   2187.71   2177.89   2188.59   2169.86   2114.39   2236.96   2107.68   2089.89   2101.50   2084.42   2012.53   1993.58   2002.63   1959.33   1939.08   1946.65   1930.85   1913.76   1908.77   1869.91   1879.04
   2267.12   2220.74   2187.71   2177.90   2188.59   2169.86   2114.39   2236.96   2107.68   2089.89   2101.50   2084.42   2012.52   1993.58   2002.63   1959.33   1939.08   1946.65   1930.85   1913.76   1908.77   1869.91   1879.04
   2267.12   2220.74   2187.71   2177.90   2188.60   2169.87   2114.39   2236.95   2107.68   2089.89   2101.50   2084.41   2012.52   1993.58   2002.63   1959.33   1939.08   1946.65   1930.85   1913.76   1908.77   1869.92   1879.04
   2267.12   2220.74   2187.71   2177.90   2188.60   2169.87   2114.39   2236.95   2107.68   2089.89   2101.50   2084.41   2012.52   1993.58   2002.63   1959.33   1939.08   1946.65   1930.85   1913.76   1908.78   1869.92   1879.04
   2267.12   2220.74   2187.71   2177.91   2188.60   2169.88   2114.40   2236.95   2107.68   2089.89   2101.50   2084.41   2012.51   1993.59   2002.63   1959.33   1939.08   1946.65   1930.85   1913.76   1908.78   1869.92   1879.04
   2267.13   2220.74   2187.71   2177.91   2188.60   2169.89   2114.40   2236.94   2107.68   2089.89   2101.50   2084.41   2012.51   1993.59   2002.62   1959.33   1939.08   1946.65   1930.85   1913.77   1908.78   1869.92   1879.04
   2267.13   2220.74   2187.71   2177.91   2188.61   2169.89   2114.40   2236.94   2107.68   2089.89   2101.50   2084.41   2012.50   1993.59   2002.62   1959.33   1939.08   1946.65   1930.85   1913.77   1908.79   1869.92   1879.04
   2267.13   2220.74   2187.71   2177.92   2188.61   2169.90   2114.40   2236.93   2107.68   2089.89   2101.50   2084.41   2012.50   1993.59   2002.62   1959.33   1939.08   1946.65   1930.85   1913.77   1908.79   1869.92   1879.04
   2267.13   2220.74   2187.71   2177.92   2188.61   2169.90   2114.40   2236.93   2107.68   2089.89   2101.50   2084.41   2012.50   1993.59   2002.62   1959.33   1939.08   1946.65   1930.85   1913.77   1908.80   1869.92   1879.04