 Head values for selected MODFLOW cells
   1503.97   1672.24   1666.41
   1503.99   1672.11   1666.42
   1503.99   1672.09   1666.42
   1503.99   1672.09   1666.42
   1503.99   1672.09   1666.43
   1503.99   1672.09   1666.43
   1503.99   1672.09   1666.43
   1503.99   1672.09   1666.43
   1503.99   1672.09   1666.43
   1503.99   1672.09   1666.43
   1503.99   1672.09   1666.43
   1503.99   1672.09   1666.43
   1503.99   1672.09   1666.43
   1503.99   1672.09   1666.43
   1503.99   1672.09   1666.43
   1503.99   1672.09   1666.43
   1503.99   1672.09   1666.43
   1503.99   1672.09   1666.43
   1503.99   1672.09   1666.43
   1503.99   1672.09   1666.43
   1503.99   1672.09   1666.43
   1503.99   1672.09   1666.43
   1503.99   1672.09   1666.43
   1503.99   1672.09   1666.43
   1503.99   1672.09   1666.43
   1503.99   1672.09   1666.43
   1503.89   1672.09   1666.43
   1503.88   1672.09   1666.43
   1503.88   1672.09   1666.43
   1503.88   1672.09   1666.43
   1503.88   1672.09   1666.43
   1503.88   1672.09   1666.43
   1503.88   1672.09   1666.43
   1503.88   1672.09   1666.43
   1503.88   1672.09   1666.43
   1503.88   1672.09   1666.43
   1503.88   1672.09   1666.43
   1503.88   1672.09   1666.43
   1503.88   1672.09   1666.43
   1503.88   1672.09   1666.43
   1503.86   1672.09   1666.43
   1503.85   1672.09   1666.43
   1503.86   1672.09   1666.43
   1503.87   1672.09   1666.43
   1503.89   1672.09   1666.43
   1503.89   1672.09   1666.43
   1503.91   1672.09   1666.43
   1503.91   1672.09   1666.43
   1503.91   1672.09   1666.43
   1503.91   1672.09   1666.43
   1503.91   1672.09   1666.43
   1503.91   1672.09   1666.43
   1503.91   1672.09   1666.43
   1503.92   1672.09   1666.43
   1503.90   1672.09   1666.43
   1503.89   1672.09   1666.43
   1503.90   1672.09   1666.43
   1503.92   1672.09   1666.43
   1503.92   1672.09   1666.43
   1503.92   1672.09   1666.43
   1503.91   1672.09   1666.43
   1503.90   1672.09   1666.43
   1503.90   1672.09   1666.43
   1503.90   1672.09   1666.43
   1503.92   1672.09   1666.43
   1503.94   1672.09   1666.43
   1503.99   1672.09   1666.43
   1503.99   1672.09   1666.43
   1503.99   1672.09   1666.43
   1503.99   1672.09   1666.43
   1503.99   1672.09   1666.43
   1503.99   1672.09   1666.43
   1503.99   1672.09   1666.43
   1503.99   1672.09   1666.43
   1503.99   1672.09   1666.43
   1503.99   1672.09   1666.43
   1503.99   1672.09   1666.43
   1503.99   1672.09   1666.43
   1503.99   1672.09   1666.43
   1503.99   1672.09   1666.43
   1503.99   1672.09   1666.43
   1503.99   1672.09   1666.43
   1503.99   1672.09   1666.43
   1503.99   1672.09   1666.43
   1503.99   1672.09   1666.43
   1503.95   1672.09   1666.43
   1503.92   1672.09   1666.43
   1503.92   1672.09   1666.43
   1503.92   1672.09   1666.43
   1503.92   1672.09   1666.43
   1503.88   1672.09   1666.43
   1503.94   1672.09   1666.43
   1503.99   1672.09   1666.43
   1503.99   1672.09   1666.43
   1503.99   1672.09   1666.43
   1503.99   1672.09   1666.43
   1503.99   1672.09   1666.43
   1503.99   1672.09   1666.43
   1503.99   1672.09   1666.43
   1503.99   1672.09   1666.43
   1503.99   1672.09   1666.43
   1503.99   1672.09   1666.43
   1503.99   1672.09   1666.43
   1503.99   1672.09   1666.43
   1503.99   1672.09   1666.43
   1503.99   1672.14   1666.47
   1503.99   1672.29   1666.62
   1503.99   1672.39   1666.72
   1503.99   1672.45   1666.79
   1503.99   1672.18   1666.54
   1503.99   1672.18   1666.52
   1503.99   1672.16   1666.50
   1503.99   1672.13   1666.47
   1503.99   1672.38   1666.70
   1503.99   1672.56   1666.88
   1503.99   1672.69   1667.02
   1503.99   1672.52   1666.87
   1503.99   1672.28   1666.64
   1503.99   1672.28   1666.62
   1503.99   1672.33   1666.67
   1503.99   1672.19   1666.54
   1503.99   1672.22   1666.56
   1503.99   1672.17   1666.52
   1503.99   1672.15   1666.49
   1503.99   1672.14   1666.48
   1503.99   1672.12   1666.47
   1503.99   1672.12   1666.46
   1503.99   1672.11   1666.45
   1503.99   1672.11   1666.45
   1503.99   1672.11   1666.45
   1503.99   1672.10   1666.44
   1503.99   1672.54   1666.85
   1503.99   1672.24   1666.59
   1503.99   1672.23   1666.58
   1503.99   1672.65   1666.96
   1503.99   1672.26   1666.62
   1503.99   1672.24   1666.59
   1503.99   1672.20   1666.54
   1503.99   1672.17   1666.51
   1503.99   1672.15   1666.49
   1503.99   1672.14   1666.48
   1503.99   1672.14   1666.47
   1503.99   1672.14   1666.48
   1503.99   1672.12   1666.46
   1503.99   1672.12   1666.46
   1503.99   1672.11   1666.45
   1503.99   1672.11   1666.45
   1503.99   1672.11   1666.45
   1503.99   1672.11   1666.45
   1503.99   1672.11   1666.45
   1503.99   1672.11   1666.45
   1503.99   1672.27   1666.60
   1503.99   1672.38   1666.71
   1503.99   1672.46   1666.79
   1503.99   1672.76   1667.08
   1503.99   1672.88   1667.20
   1503.99   1672.90   1667.23
   1503.99   1672.90   1667.24
   1503.99   1672.31   1666.69
   1503.99   1672.24   1666.59
   1503.99   1672.18   1666.52
   1503.99   1672.72   1667.02
   1503.99   1672.87   1667.19
   1503.99   1672.90   1667.23
   1503.99   1672.90   1667.24
   1503.99   1672.90   1667.24
   1503.99   1672.90   1667.24
   1503.99   1672.35   1666.73
   1503.99   1672.24   1666.59
   1503.99   1672.25   1666.60
   1503.99   1672.51   1666.84
   1503.99   1672.84   1667.15
   1503.99   1672.89   1667.22
   1503.99   1672.81   1667.16
   1503.99   1672.76   1667.11
   1503.99   1672.88   1667.21
   1503.99   1672.83   1667.17
   1503.99   1672.60   1666.96
   1503.99   1672.25   1666.62
   1503.99   1672.43   1666.76
   1503.99   1672.34   1666.68
   1503.99   1672.22   1666.56
   1503.99   1672.50   1666.82
   1503.99   1672.55   1666.89
   1503.98   1672.55   1666.89
   1503.99   1672.23   1666.59
   1503.99   1672.79   1667.10
   1503.99   1672.64   1666.98
   1503.98   1672.35   1666.71
   1503.99   1672.26   1666.61
   1503.99   1672.16   1666.51
   1503.99   1672.33   1666.66
   1503.99   1672.36   1666.69
   1503.99   1672.23   1666.57
   1503.99   1672.24   1666.58
   1503.99   1672.22   1666.56
   1503.99   1672.22   1666.56
   1503.99   1672.21   1666.55
   1503.99   1672.27   1666.60
   1503.99   1672.19   1666.53
   1503.99   1672.34   1666.67
   1503.99   1672.38   1666.72
   1503.99   1672.19   1666.54
   1503.99   1672.35   1666.68
   1503.99   1672.34   1666.68
   1503.99   1672.21   1666.56
   1503.99   1672.21   1666.55
   1503.99   1672.72   1667.02
   1503.99   1672.83   1667.15
   1503.99   1672.28   1666.66
   1503.99   1672.39   1666.73
   1503.99   1672.72   1667.03
   1503.99   1672.31   1666.68
   1503.99   1672.29   1666.64
   1503.99   1672.22   1666.57
   1503.99   1672.27   1666.61
   1503.99   1672.15   1666.50
   1503.99   1672.35   1666.68
   1503.99   1672.72   1667.03
   1503.99   1672.85   1667.18
   1503.99   1672.27   1666.65
   1503.99   1672.35   1666.69
   1503.99   1672.35   1666.69
   1503.99   1672.23   1666.58
   1503.99   1672.19   1666.53
   1503.99   1672.29   1666.62
   1503.99   1672.28   1666.62
   1503.99   1672.23   1666.57
   1503.99   1672.19   1666.54
   1503.99   1672.25   1666.59
   1503.99   1672.24   1666.58
   1503.99   1672.21   1666.55
   1503.99   1672.30   1666.63
   1503.99   1672.17   1666.52
   1503.99   1672.78   1667.08
   1503.99   1672.88   1667.21
   1503.99   1672.90   1667.23
   1503.99   1672.76   1667.11
   1503.99   1672.36   1666.73
   1503.99   1672.24   1666.59
   1503.99   1672.22   1666.57
   1503.99   1672.35   1666.68
   1503.99   1672.55   1666.87
   1503.99   1672.71   1667.03
   1503.99   1672.87   1667.19
   1503.99   1672.30   1666.67
   1503.99   1672.23   1666.58
   1503.99   1672.19   1666.53
   1503.99   1672.22   1666.56
   1503.99   1672.25   1666.59
   1503.99   1672.22   1666.56
   1503.99   1672.20   1666.54
   1503.97   1672.23   1666.57
   1503.98   1672.20   1666.55
   1503.99   1672.23   1666.57
   1503.99   1672.21   1666.55
   1503.99   1672.21   1666.55
   1503.89   1672.20   1666.54
   1503.86   1672.17   1666.51
   1503.86   1672.17   1666.51
   1503.86   1672.16   1666.50
   1503.86   1672.14   1666.48
   1503.87   1672.17   1666.51
   1503.86   1672.16   1666.50
   1503.86   1672.17   1666.50
   1503.86   1672.16   1666.50
   1503.86   1672.15   1666.49
   1503.86   1672.14   1666.48
   1503.93   1672.14   1666.48
   1503.87   1672.14   1666.48
   1503.88   1672.14   1666.48
   1503.89   1672.12   1666.46
   1503.89   1672.15   1666.48
   1503.89   1672.13   1666.47
   1503.89   1672.14   1666.48
   1503.89   1672.18   1666.52
   1503.88   1672.14   1666.48
   1503.88   1672.17   1666.51
   1503.88   1672.17   1666.51
   1503.88   1672.14   1666.48
   1503.88   1672.14   1666.48
   1503.88   1672.13   1666.47
   1503.88   1672.13   1666.47
   1503.88   1672.12   1666.46
   1503.88   1672.12   1666.46
   1503.89   1672.12   1666.46
   1503.96   1672.13   1666.47
   1503.89   1672.13   1666.47
   1503.88   1672.12   1666.46
   1503.89   1672.12   1666.46
   1503.94   1672.12   1666.46
   1503.91   1672.12   1666.46
   1503.88   1672.12   1666.46
   1503.89   1672.12   1666.46
   1503.88   1672.11   1666.45
   1503.90   1672.13   1666.47
   1503.90   1672.12   1666.46
   1503.89   1672.13   1666.47
   1503.90   1672.12   1666.46
   1503.89   1672.13   1666.47
   1503.96   1672.15   1666.49
   1503.94   1672.13   1666.47
   1503.99   1672.14   1666.48
   1503.92   1672.12   1666.46
   1503.89   1672.12   1666.46
   1503.91   1672.14   1666.48
   1503.90   1672.13   1666.47
   1503.96   1672.12   1666.46
   1503.99   1672.13   1666.47
   1503.99   1672.24   1666.57
   1503.99   1672.17   1666.51
   1503.96   1672.16   1666.50
   1503.93   1672.13   1666.47
   1503.91   1672.13   1666.47
   1503.90   1672.12   1666.46
   1503.89   1672.12   1666.46
   1503.89   1672.12   1666.46
   1503.89   1672.12   1666.46
   1503.89   1672.12   1666.46
   1503.89   1672.12   1666.46
   1503.89   1672.12   1666.46
   1503.89   1672.12   1666.46
   1503.89   1672.12   1666.46
   1503.89   1672.12   1666.46
   1503.89   1672.12   1666.46
   1503.89   1672.12   1666.46
   1503.89   1672.12   1666.46
   1503.89   1672.12   1666.46
   1503.88   1672.12   1666.46
   1503.88   1672.12   1666.46
   1503.88   1672.12   1666.46
   1503.88   1672.12   1666.46
   1503.89   1672.12   1666.46
   1503.89   1672.12   1666.46
   1503.89   1672.12   1666.46
   1503.89   1672.12   1666.46
   1503.89   1672.12   1666.46
   1503.89   1672.12   1666.46
   1503.89   1672.12   1666.46
   1503.89   1672.12   1666.46
   1503.88   1672.12   1666.46
   1503.88   1672.12   1666.46
   1503.89   1672.12   1666.46
   1503.88   1672.12   1666.46
   1503.89   1672.12   1666.46
   1503.89   1672.12   1666.46
   1503.89   1672.12   1666.46
   1503.89   1672.12   1666.46
   1503.89   1672.12   1666.46
   1503.89   1672.12   1666.46
   1503.89   1672.12   1666.46
   1503.89   1672.12   1666.46
   1503.89   1672.12   1666.46
   1503.89   1672.12   1666.46
   1503.88   1672.12   1666.46
   1503.89   1672.12   1666.46
   1503.89   1672.12   1666.46
   1503.89   1672.12   1666.46
   1503.89   1672.12   1666.46
   1503.89   1672.12   1666.46
   1503.89   1672.12   1666.46
   1503.89   1672.12   1666.46
   1503.88   1672.12   1666.46
   1503.89   1672.12   1666.46
   1503.89   1672.12   1666.46
   1503.89   1672.12   1666.46
   1503.88   1672.12   1666.46
   1503.89   1672.12   1666.46
   1503.89   1672.12   1666.46
   1503.88   1672.12   1666.46
   1503.88   1672.12   1666.46
   1503.88   1672.12   1666.46
   1503.88   1672.12   1666.46
   1503.88   1672.12   1666.46
   1503.88   1672.12   1666.46
   1503.88   1672.12   1666.46
   1503.88   1672.12   1666.46
   1503.88   1672.12   1666.46
   1503.88   1672.12   1666.46
   1503.88   1672.12   1666.46
   1503.88   1672.12   1666.46
   1503.88   1672.12   1666.46
   1503.88   1672.12   1666.46
   1503.88   1672.12   1666.46
   1503.88   1672.12   1666.46
   1503.88   1672.12   1666.46
   1503.88   1672.12   1666.46
   1503.88   1672.12   1666.46
   1503.88   1672.12   1666.46
   1503.88   1672.12   1666.46
   1503.88   1672.12   1666.46
   1503.88   1672.12   1666.46
   1503.88   1672.12   1666.46
   1503.88   1672.12   1666.46
   1503.88   1672.12   1666.46
   1503.88   1672.12   1666.46
   1503.89   1672.12   1666.46
   1503.89   1672.12   1666.46
   1503.88   1672.13   1666.46
   1503.89   1672.12   1666.46
   1503.89   1672.12   1666.46
   1503.89   1672.12   1666.46
   1503.89   1672.12   1666.46
   1503.88   1672.12   1666.46
   1503.88   1672.12   1666.46
   1503.88   1672.12   1666.46
   1503.88   1672.12   1666.46
   1503.88   1672.12   1666.46
   1503.88   1672.12   1666.46
   1503.88   1672.12   1666.46
   1503.88   1672.12   1666.46
   1503.88   1672.12   1666.46
   1503.88   1672.12   1666.46
   1503.88   1672.12   1666.46
   1503.88   1672.12   1666.46
   1503.88   1672.12   1666.46
   1503.88   1672.12   1666.46
   1503.88   1672.12   1666.46
   1503.88   1672.12   1666.46
   1503.88   1672.12   1666.46
   1503.88   1672.12   1666.46
   1503.88   1672.12   1666.46
   1503.88   1672.12   1666.46
   1503.88   1672.12   1666.46
   1503.88   1672.12   1666.46
   1503.88   1672.12   1666.46
   1503.88   1672.12   1666.46
   1503.88   1672.12   1666.46
   1503.88   1672.12   1666.46
   1503.88   1672.12   1666.46
   1503.88   1672.12   1666.46
   1503.88   1672.12   1666.46
   1503.88   1672.12   1666.46
   1503.88   1672.12   1666.46
   1503.88   1672.12   1666.46
   1503.88   1672.12   1666.46
   1503.88   1672.12   1666.46
   1503.88   1672.12   1666.46
   1503.88   1672.12   1666.46
   1503.88   1672.12   1666.46
   1503.88   1672.12   1666.46
   1503.88   1672.12   1666.46
   1503.88   1672.12   1666.46
   1503.88   1672.12   1666.46
   1503.88   1672.12   1666.46
   1503.88   1672.12   1666.46
   1503.91   1672.12   1666.46
   1503.89   1672.12   1666.46
   1503.90   1672.12   1666.46
   1503.90   1672.12   1666.46
   1503.89   1672.12   1666.46
   1503.98   1672.12   1666.46
   1503.91   1672.13   1666.47
   1503.90   1672.13   1666.46
   1503.89   1672.12   1666.46
   1503.88   1672.13   1666.47
   1503.89   1672.12   1666.46
   1503.89   1672.13   1666.47
   1503.89   1672.12   1666.46
   1503.89   1672.12   1666.46
   1503.89   1672.13   1666.47
   1503.89   1672.13   1666.47
   1503.98   1672.13   1666.47
   1503.99   1672.25   1666.58
   1503.99   1672.17   1666.51
   1503.99   1672.17   1666.51
   1503.94   1672.15   1666.49
   1503.92   1672.14   1666.48
   1503.99   1672.34   1666.67
   1503.99   1672.42   1666.75
   1503.99   1672.32   1666.66
   1503.96   1672.25   1666.59
   1503.93   1672.20   1666.55
   1503.91   1672.18   1666.52
   1503.90   1672.16   1666.50
   1503.93   1672.15   1666.49
   1503.91   1672.14   1666.48
   1503.90   1672.13   1666.47
   1503.89   1672.13   1666.47
   1503.89   1672.13   1666.47
   1503.89   1672.13   1666.47
   1503.89   1672.13   1666.47
   1503.89   1672.13   1666.47
   1503.95   1672.13   1666.47
   1503.99   1672.17   1666.50
   1503.99   1672.13   1666.47
   1503.99   1672.29   1666.62
   1503.99   1672.25   1666.59
   1503.99   1672.20   1666.54
   1503.99   1672.18   1666.52
   1503.99   1672.15   1666.49
   1503.99   1672.22   1666.56
   1503.99   1672.21   1666.55
   1503.99   1672.18   1666.52
   1503.99   1672.18   1666.52
   1503.99   1672.15   1666.49
   1503.98   1672.16   1666.50
   1503.99   1672.17   1666.51
   1503.99   1672.78   1667.08
   1503.99   1672.88   1667.20
   1503.99   1672.90   1667.23
   1503.99   1672.90   1667.24
   1503.99   1672.90   1667.24
   1503.99   1672.48   1666.85
   1503.99   1672.33   1666.69
   1503.99   1672.23   1666.58
   1503.99   1672.21   1666.55
   1503.99   1672.19   1666.53
   1503.99   1672.19   1666.53
   1503.99   1672.22   1666.55
   1503.99   1672.52   1666.84
   1503.99   1672.49   1666.83
   1503.99   1672.26   1666.62
   1503.99   1672.71   1667.02
   1503.99   1672.76   1667.09
   1503.99   1672.32   1666.69
   1503.99   1672.24   1666.59
   1503.99   1672.20   1666.54
   1503.99   1672.18   1666.52
   1503.99   1672.19   1666.53
   1503.99   1672.79   1667.08
   1503.99   1672.88   1667.21
   1503.99   1672.90   1667.23
   1503.99   1672.81   1667.15
   1503.99   1672.64   1666.99
   1503.99   1672.66   1667.00
   1503.99   1672.86   1667.19
   1503.99   1672.73   1667.08
   1503.99   1672.31   1666.68
   1503.99   1672.22   1666.57
   1503.99   1672.22   1666.56
   1503.98   1672.22   1666.56
   1503.94   1672.22   1666.56
   1503.92   1672.19   1666.53
   1503.92   1672.79   1667.08
   1503.92   1672.88   1667.21
   1503.92   1672.90   1667.23
   1503.91   1672.87   1667.21
   1503.92   1672.89   1667.23
   1503.93   1672.85   1667.19
   1503.92   1672.50   1666.87
   1503.92   1672.55   1666.90
   1503.92   1672.74   1667.07
   1503.93   1672.30   1666.67
   1503.99   1672.79   1667.10
   1503.96   1672.85   1667.18
   1503.92   1672.28   1666.66
   1503.92   1672.56   1666.89
   1503.92   1672.51   1666.85
   1503.92   1672.78   1667.11
   1503.99   1672.82   1667.16
   1503.93   1672.27   1666.65
   1503.93   1672.80   1667.11
   1503.92   1672.60   1666.95
   1503.92   1672.56   1666.90
   1503.92   1672.23   1666.59
   1503.93   1672.54   1666.86
   1503.93   1672.39   1666.73
   1503.93   1672.21   1666.56
   1503.91   1672.27   1666.61
   1503.92   1672.27   1666.61
   1503.92   1672.24   1666.59
   1503.92   1672.18   1666.52
   1503.92   1672.24   1666.58
   1503.92   1672.25   1666.59
   1503.91   1672.19   1666.53
   1503.91   1672.21   1666.55
   1503.91   1672.19   1666.53
   1503.91   1672.17   1666.52
   1503.91   1672.19   1666.53
   1503.91   1672.18   1666.52
   1503.91   1672.18   1666.52
   1503.91   1672.17   1666.51
   1503.93   1672.19   1666.53
   1503.92   1672.39   1666.71
   1503.91   1672.22   1666.57
   1503.92   1672.25   1666.59
   1503.95   1672.35   1666.68
   1503.98   1672.81   1667.12
   1503.92   1672.30   1666.66
   1503.93   1672.44   1666.78
   1503.92   1672.22   1666.57
   1503.92   1672.27   1666.61
   1503.96   1672.53   1666.85
   1503.99   1672.84   1667.16
   1503.92   1672.28   1666.65
   1503.92   1672.25   1666.60
   1503.92   1672.24   1666.58
   1503.92   1672.18   1666.53
   1503.91   1672.24   1666.57
   1503.91   1672.21   1666.55
   1503.89   1672.22   1666.56
   1503.91   1672.23   1666.57
   1503.94   1672.43   1666.75
   1503.94   1672.43   1666.77
   1503.92   1672.21   1666.56
   1503.92   1672.33   1666.66
   1503.92   1672.24   1666.58
   1503.94   1672.21   1666.56
   1503.97   1672.68   1666.99
   1503.92   1672.29   1666.65
   1503.92   1672.18   1666.53
   1503.92   1672.32   1666.66
   1503.92   1672.27   1666.61
   1503.99   1672.80   1667.10
   1503.94   1672.28   1666.65
   1503.92   1672.23   1666.58
   1503.92   1672.23   1666.57
   1503.95   1672.26   1666.60
   1503.94   1672.30   1666.64
   1503.92   1672.21   1666.55
   1503.92   1672.20   1666.55
   1503.92   1672.19   1666.53
   1503.92   1672.22   1666.55
   1503.92   1672.21   1666.55
   1503.91   1672.18   1666.52
   1503.91   1672.19   1666.53
   1503.91   1672.17   1666.52
   1503.91   1672.19   1666.52
   1503.98   1672.74   1667.04
   1503.99   1672.87   1667.20
   1503.94   1672.38   1666.75
   1503.99   1672.29   1666.64
   1503.95   1672.21   1666.56
   1503.99   1672.34   1666.68
   1503.93   1672.70   1667.01
   1503.91   1672.62   1666.96
   1503.90   1672.28   1666.64
   1503.90   1672.23   1666.58
   1503.96   1672.50   1666.82
   1503.91   1672.27   1666.62
   1503.91   1672.20   1666.55
   1503.90   1672.21   1666.55
   1503.89   1672.18   1666.53
   1503.90   1672.20   1666.54
   1503.91   1672.19   1666.53
   1503.91   1672.18   1666.52
   1503.91   1672.18   1666.52
   1503.90   1672.17   1666.51
   1503.89   1672.16   1666.50
   1503.90   1672.18   1666.52
   1503.89   1672.17   1666.51
   1503.88   1672.17   1666.51
   1503.87   1672.17   1666.51
   1503.87   1672.15   1666.49
   1503.96   1672.20   1666.54
   1503.90   1672.17   1666.51
   1503.89   1672.19   1666.53
   1503.89   1672.16   1666.50
   1503.89   1672.16   1666.50
   1503.89   1672.15   1666.49
   1503.89   1672.16   1666.50
   1503.88   1672.16   1666.50
   1503.89   1672.15   1666.49
   1503.89   1672.15   1666.49
   1503.89   1672.14   1666.48
   1503.89   1672.16   1666.50
   1503.88   1672.16   1666.50
   1503.89   1672.15   1666.49
   1503.89   1672.14   1666.48
   1503.89   1672.15   1666.49
   1503.89   1672.14   1666.48
   1503.89   1672.14   1666.48
   1503.89   1672.15   1666.48
   1503.89   1672.14   1666.48
   1503.89   1672.14   1666.48
   1503.89   1672.14   1666.48
   1503.89   1672.14   1666.48
   1503.89   1672.14   1666.48
   1503.89   1672.14   1666.48
   1503.88   1672.14   1666.48
   1503.88   1672.14   1666.48
   1503.89   1672.15   1666.49
   1503.89   1672.15   1666.48
   1503.89   1672.13   1666.48
   1503.89   1672.15   1666.49
   1503.89   1672.15   1666.49
   1503.89   1672.14   1666.48
   1503.89   1672.15   1666.48
   1503.89   1672.14   1666.48
   1503.89   1672.14   1666.48
   1503.89   1672.14   1666.48
   1503.89   1672.14   1666.48
   1503.89   1672.14   1666.48
   1503.89   1672.14   1666.48
   1503.89   1672.14   1666.48
   1503.89   1672.14   1666.48
   1503.89   1672.14   1666.48
   1503.89   1672.14   1666.48
   1503.89   1672.14   1666.48
   1503.89   1672.14   1666.48
   1503.89   1672.14   1666.48
   1503.89   1672.14   1666.48
   1503.89   1672.14   1666.48
   1503.89   1672.14   1666.48
   1503.89   1672.14   1666.48
   1503.89   1672.14   1666.48
   1503.89   1672.14   1666.48
   1503.89   1672.14   1666.48
   1503.89   1672.14   1666.48
   1503.89   1672.14   1666.48
   1503.89   1672.13   1666.47
   1503.89   1672.14   1666.48
   1503.89   1672.14   1666.48
   1503.89   1672.14   1666.48
   1503.89   1672.14   1666.48
   1503.89   1672.14   1666.48
   1503.89   1672.14   1666.48
   1503.89   1672.14   1666.48
   1503.89   1672.14   1666.48
   1503.89   1672.14   1666.48
   1503.89   1672.14   1666.48
   1503.89   1672.14   1666.48
   1503.89   1672.14   1666.48
   1503.89   1672.14   1666.48
   1503.89   1672.14   1666.48
   1503.89   1672.14   1666.48
   1503.89   1672.14   1666.48
   1503.89   1672.14   1666.48
   1503.89   1672.14   1666.48
   1503.89   1672.14   1666.48
   1503.89   1672.14   1666.48
   1503.89   1672.14   1666.48
   1503.89   1672.14   1666.48
   1503.89   1672.14   1666.48
   1503.89   1672.14   1666.48
   1503.89   1672.14   1666.48
   1503.89   1672.14   1666.48
   1503.89   1672.14   1666.48
   1503.89   1672.14   1666.48
   1503.89   1672.14   1666.48
   1503.89   1672.14   1666.48
   1503.88   1672.14   1666.48
   1503.89   1672.13   1666.47
   1503.89   1672.14   1666.48
   1503.89   1672.14   1666.48
   1503.89   1672.14   1666.48
   1503.89   1672.14   1666.48
   1503.89   1672.14   1666.48
   1503.89   1672.14   1666.48
   1503.89   1672.14   1666.48
   1503.89   1672.14   1666.48
   1503.89   1672.14   1666.48
   1503.89   1672.14   1666.48
   1503.88   1672.14   1666.48
   1503.89   1672.14   1666.48
   1503.88   1672.14   1666.48
   1503.88   1672.15   1666.49
   1503.88   1672.15   1666.49
   1503.88   1672.14   1666.48
   1503.88   1672.14   1666.48
   1503.88   1672.14   1666.48
   1503.88   1672.14   1666.48
   1503.89   1672.14   1666.48
   1503.89   1672.14   1666.48
   1503.88   1672.14   1666.48
   1503.89   1672.14   1666.48
   1503.88   1672.14   1666.48
   1503.88   1672.14   1666.48
   1503.88   1672.14   1666.48
   1503.88   1672.14   1666.48
   1503.88   1672.14   1666.48
   1503.88   1672.14   1666.48
   1503.89   1672.14   1666.48
   1503.89   1672.15   1666.49
   1503.89   1672.15   1666.49
   1503.89   1672.15   1666.49
   1503.89   1672.15   1666.49
   1503.89   1672.14   1666.48
   1503.89   1672.14   1666.48
   1503.89   1672.15   1666.49
   1503.89   1672.15   1666.49
   1503.89   1672.15   1666.49
   1503.89   1672.15   1666.49
   1503.89   1672.15   1666.49
   1503.89   1672.14   1666.48
   1503.89   1672.16   1666.50
   1503.89   1672.16   1666.50
   1503.89   1672.15   1666.49
   1503.89   1672.15   1666.49
   1503.89   1672.16   1666.50
   1503.89   1672.15   1666.49
   1503.89   1672.16   1666.50
   1503.89   1672.15   1666.49
   1503.89   1672.15   1666.49
   1503.89   1672.14   1666.48
   1503.89   1672.16   1666.50
   1503.88   1672.17   1666.50
   1503.89   1672.15   1666.49
   1503.89   1672.16   1666.50
   1503.89   1672.16   1666.50
   1503.89   1672.15   1666.49
   1503.88   1672.15   1666.49
   1503.89   1672.14   1666.48
   1503.89   1672.16   1666.50
   1503.89   1672.16   1666.50
   1503.89   1672.15   1666.49
   1503.89   1672.14   1666.48
   1503.98   1672.27   1666.60
   1503.99   1672.40   1666.72
   1503.99   1672.71   1667.02
   1503.99   1672.71   1667.04
   1503.99   1672.34   1666.71
   1503.99   1672.27   1666.62
   1503.95   1672.20   1666.54
   1503.92   1672.18   1666.52
   1503.90   1672.17   1666.51
   1503.89   1672.15   1666.49
   1503.89   1672.17   1666.51
   1503.89   1672.17   1666.51
   1503.89   1672.16   1666.50
   1503.89   1672.16   1666.50
   1503.88   1672.15   1666.49
   1503.88   1672.14   1666.48
   1503.89   1672.15   1666.49
   1503.89   1672.15   1666.49
   1503.89   1672.15   1666.49
   1503.89   1672.15   1666.49
   1503.89   1672.15   1666.49
   1503.89   1672.14   1666.48
   1503.94   1672.14   1666.48
   1503.99   1672.14   1666.48
   1503.99   1672.14   1666.48
   1503.99   1672.15   1666.49
   1503.99   1672.15   1666.49
   1503.99   1672.15   1666.48
   1503.99   1672.14   1666.48
   1503.99   1672.14   1666.48
   1503.99   1672.37   1666.69
   1503.99   1672.65   1666.97
   1503.99   1672.25   1666.62
   1503.99   1672.23   1666.58
   1503.99   1672.20   1666.54
   1503.99   1672.19   1666.53
   1503.99   1672.17   1666.51
   1503.99   1672.17   1666.51
   1503.99   1672.35   1666.68
   1503.99   1672.48   1666.81
   1503.99   1672.45   1666.79
   1503.99   1672.83   1667.14
   1503.99   1672.89   1667.22
   1503.99   1672.90   1667.23
   1503.99   1672.90   1667.24
   1503.99   1672.68   1667.03
   1503.99   1672.51   1666.86
   1503.99   1672.30   1666.65
   1503.99   1672.24   1666.59
   1503.99   1672.25   1666.59
   1503.99   1672.22   1666.56
   1503.99   1672.22   1666.56
   1503.99   1672.20   1666.54
   1503.99   1672.18   1666.52
   1503.99   1672.17   1666.51
   1503.99   1672.16   1666.50
   1503.99   1672.17   1666.51
   1503.99   1672.17   1666.51
   1503.99   1672.16   1666.50
   1503.99   1672.52   1666.83
   1503.99   1672.83   1667.14
   1503.99   1672.89   1667.22
   1503.99   1672.90   1667.23
   1503.99   1672.40   1666.77
   1503.99   1672.26   1666.61
   1503.99   1672.21   1666.56
   1503.99   1672.21   1666.55
   1503.99   1672.20   1666.54
   1503.99   1672.19   1666.53
   1503.98   1672.18   1666.52
   1503.95   1672.18   1666.52
   1503.94   1672.19   1666.52
   1503.94   1672.17   1666.51
   1503.95   1672.32   1666.65
   1503.93   1672.72   1667.03
   1503.91   1672.84   1667.17
   1503.90   1672.89   1667.22
   1503.91   1672.39   1666.76
   1503.91   1672.26   1666.62
   1503.91   1672.21   1666.56
   1503.91   1672.68   1666.98
   1503.90   1672.86   1667.18
   1503.95   1672.35   1666.72
   1503.99   1672.23   1666.59
   1503.99   1672.21   1666.56
   1503.99   1672.22   1666.56
   1503.96   1672.22   1666.56
   1503.96   1672.19   1666.53
   1503.95   1672.21   1666.55
   1503.93   1672.20   1666.54
   1503.92   1672.21   1666.55
   1503.91   1672.18   1666.53
   1503.92   1672.23   1666.57
   1503.92   1672.23   1666.57
   1503.91   1672.22   1666.56
   1503.92   1672.22   1666.56
   1503.92   1672.31   1666.64
   1503.90   1672.20   1666.55
   1503.91   1672.23   1666.57
   1503.91   1672.42   1666.75
   1503.91   1672.82   1667.13
   1503.91   1672.79   1667.13
   1503.91   1672.54   1666.90
   1503.91   1672.54   1666.88
   1503.91   1672.51   1666.85
   1503.92   1672.31   1666.66
   1503.91   1672.26   1666.61
   1503.91   1672.25   1666.59
   1503.91   1672.25   1666.59
   1503.91   1672.25   1666.59
   1503.91   1672.26   1666.59
   1503.91   1672.40   1666.73
   1503.91   1672.76   1667.07
   1503.91   1672.56   1666.91
   1503.91   1672.81   1667.13
   1503.91   1672.60   1666.95
   1503.91   1672.57   1666.91
   1503.90   1672.58   1666.92
   1503.90   1672.60   1666.94
   1503.90   1672.33   1666.69
   1503.90   1672.27   1666.61
   1503.90   1672.25   1666.60
   1503.90   1672.30   1666.64
   1503.92   1672.30   1666.64
   1503.92   1672.30   1666.64
   1503.98   1672.65   1666.97
   1503.92   1672.35   1666.71
   1503.93   1672.31   1666.66
   1503.94   1672.29   1666.63
   1503.93   1672.28   1666.62
   1503.93   1672.27   1666.61
   1503.93   1672.27   1666.61
   1503.93   1672.26   1666.60
   1503.92   1672.25   1666.59
   1503.92   1672.25   1666.59
   1503.92   1672.24   1666.58
   1503.99   1672.74   1667.05
   1503.99   1672.87   1667.20
   1503.99   1672.90   1667.23
   1503.94   1672.61   1666.96
   1503.99   1672.78   1667.11
   1503.94   1672.82   1667.16
   1503.94   1672.70   1667.04
   1503.98   1672.70   1667.04
   1503.92   1672.29   1666.66
   1503.99   1672.80   1667.11
   1503.95   1672.40   1666.76
   1503.95   1672.27   1666.62
   1503.93   1672.25   1666.59
   1503.93   1672.23   1666.57
   1503.93   1672.23   1666.57
   1503.93   1672.22   1666.56
   1503.93   1672.22   1666.56
   1503.93   1672.21   1666.55
   1503.92   1672.21   1666.55
   1503.93   1672.21   1666.55
   1503.93   1672.24   1666.57
   1503.92   1672.21   1666.55
   1503.92   1672.21   1666.55
   1503.94   1672.23   1666.57
   1503.94   1672.22   1666.56
   1503.92   1672.24   1666.58
   1503.99   1672.79   1667.09
   1503.94   1672.52   1666.87
   1503.94   1672.25   1666.61
   1503.95   1672.39   1666.73
   1503.93   1672.26   1666.61
   1503.91   1672.20   1666.54